
##########                                Name:     oleObject80.pdb
##########                DOCK_Rotatable_Bonds:                  14
##########                         Heavy_Atoms:                  51
##########                    Molecular_Weight:             703.283
##########                DOCK_Rotatable_Bonds:                  14
##########                       Formal_Charge:         0.000299793
##########                     HBond_Acceptors:                  10
##########                        HBond_Donors:                   3
##########                         Heavy_Atoms:                  51
##########                          Grid_Score:          -45.268253
##########                     Grid_vdw_energy:          -45.652599
##########                      Grid_es_energy:            0.384345
##########           Internal_energy_repulsive:           38.144081

@<TRIPOS>MOLECULE
oleObject80.pdb
 94 99 1 0 0
SMALL
NO_CHARGES


@<TRIPOS>ATOM
      1 C         -10.9480    4.0395   58.0782 C.ar    1  UNL        -0.0620
      2 C          -9.9009    3.1106   58.1582 C.ar    1  UNL        -0.0590
      3 C          -9.9584    2.0373   59.0685 C.ar    1  UNL        -0.0456
      4 C         -11.0866    1.8933   59.9155 C.ar    1  UNL        -0.0185
      5 C         -12.1340    2.8368   59.8211 C.ar    1  UNL        -0.0565
      6 C         -12.0661    3.9011   58.9101 C.ar    1  UNL        -0.0619
      7 C         -11.1730    0.7354   60.9260 C.3     1  UNL         0.0931
      8 C         -10.1410    0.8255   62.0643 C.ar    1  UNL         0.0683
      9 C          -9.8691    2.0506   62.7245 C.ar    1  UNL        -0.0272
     10 C          -8.9080    2.0595   63.7527 C.ar    1  UNL        -0.0559
     11 C          -8.2584    0.8642   64.0923 C.ar    1  UNL        -0.0435
     12 C          -8.5944   -0.3045   63.3939 C.ar    1  UNL         0.0272
     13 N          -9.5120   -0.3232   62.4093 N.ar    1  UNL        -0.2587
     14 C         -10.5816    3.3483   62.3592 C.3     1  UNL        -0.0379
     15 N         -12.5568    0.4450   61.4009 N.am    1  UNL        -0.2918
     16 C         -13.4978   -0.1294   60.5389 C.2     1  UNL         0.2180
     17 O         -13.1481   -0.6420   59.4881 O.2     1  UNL        -0.2772
     18 C         -14.9114   -0.3976   61.1136 C.3     1  UNL         0.0385
     19 C         -15.0058   -1.7831   61.7989 C.3     1  UNL        -0.0289
     20 C         -15.0182   -2.9333   60.7712 C.3     1  UNL        -0.0010
     21 N         -16.1278   -2.7884   59.8047 N.4     1  UNL        -0.3010
     22 C         -16.1079   -1.4910   59.0872 C.3     1  UNL        -0.0010
     23 C         -16.0332   -0.2772   60.0481 C.3     1  UNL        -0.0289
     24 C         -16.2310   -3.9692   58.9188 C.3     1  UNL         0.0222
     25 C         -15.0639   -4.0906   57.9174 C.3     1  UNL         0.0661
     26 O         -15.4489   -3.4089   56.7103 O.3     1  UNL        -0.3432
     27 C         -14.5438   -2.8948   55.8017 C.ar    1  UNL         0.0937
     28 C         -13.2449   -3.4232   55.6573 C.ar    1  UNL        -0.0284
     29 C         -12.3560   -2.8687   54.7218 C.ar    1  UNL        -0.0381
     30 C         -12.7489   -1.7924   53.9078 C.ar    1  UNL         0.0319
     31 C         -14.0393   -1.2517   54.0688 C.ar    1  UNL        -0.0194
     32 C         -14.9319   -1.8012   55.0038 C.ar    1  UNL         0.0727
     33 CL        -16.5291   -1.0945   55.1635 Cl      1  UNL        -0.0814
     34 N         -11.8285   -1.2624   53.0055 N.pl3   1  UNL        -0.3136
     35 C         -10.7467   -0.4006   53.1837 C.ar    1  UNL         0.0489
     36 C          -9.7904   -0.2668   52.1617 C.ar    1  UNL         0.0488
     37 N          -8.7275    0.5578   52.2473 N.ar    1  UNL        -0.2543
     38 C          -8.5496    1.3191   53.3493 C.ar    1  UNL         0.0703
     39 C          -9.4808    1.2558   54.4185 C.ar    1  UNL        -0.0339
     40 C         -10.5872    0.3956   54.3327 C.ar    1  UNL        -0.0371
     41 C          -7.3428    2.2191   53.3691 C.ar    1  UNL         0.0009
     42 C          -6.2570    2.0278   52.4752 C.ar    1  UNL        -0.0402
     43 C          -5.1207    2.8636   52.4841 C.ar    1  UNL         0.0375
     44 C          -5.0648    3.9224   53.4141 C.ar    1  UNL        -0.0496
     45 C          -6.1204    4.1318   54.3124 C.ar    1  UNL        -0.0608
     46 C          -7.2427    3.2915   54.2921 C.ar    1  UNL        -0.0528
     47 C          -4.0007    2.6022   51.5062 C.2     1  UNL         0.2403
     48 O          -2.8670    3.0090   51.6872 O.2     1  UNL        -0.2722
     49 N          -4.3005    1.8722   50.3755 N.am    1  UNL        -0.3251
     50 C         -12.8532    0.7117   62.8265 C.3     1  UNL         0.0037
     51 C          -8.7912    1.0551   59.1081 C.3     1  UNL        -0.0394
     52 H         -10.8931    4.8629   57.3718 H       1  UNL         0.0623
     53 H          -9.0395    3.2270   57.5065 H       1  UNL         0.0626
     54 H         -13.0156    2.7488   60.4480 H       1  UNL         0.0627
     55 H         -12.8811    4.6167   58.8491 H       1  UNL         0.0623
     56 H         -10.8678   -0.1451   60.3551 H       1  UNL         0.0626
     57 H          -8.6676    2.9778   64.2810 H       1  UNL         0.0627
     58 H          -7.5125    0.8429   64.8813 H       1  UNL         0.0639
     59 H          -8.1153   -1.2541   63.6286 H       1  UNL         0.0840
     60 H         -10.2956    3.6841   61.3546 H       1  UNL         0.0280
     61 H         -10.3338    4.1563   63.0587 H       1  UNL         0.0280
     62 H         -11.6713    3.2231   62.3796 H       1  UNL         0.0280
     63 H         -15.1146    0.3739   61.8652 H       1  UNL         0.0402
     64 H         -15.9297   -1.8290   62.3897 H       1  UNL         0.0288
     65 H         -14.1800   -1.9281   62.5036 H       1  UNL         0.0288
     66 H         -15.1164   -3.8829   61.3130 H       1  UNL         0.0431
     67 H         -14.0575   -2.9523   60.2387 H       1  UNL         0.0431
     68 H         -17.0121   -1.3783   58.4776 H       1  UNL         0.0431
     69 H         -15.2508   -1.4674   58.4030 H       1  UNL         0.0431
     70 H         -16.9973   -0.1922   60.5661 H       1  UNL         0.0288
     71 H         -15.9082    0.6480   59.4713 H       1  UNL         0.0288
     72 H         -17.1614   -3.9046   58.3397 H       1  UNL         0.0455
     73 H         -16.2813   -4.8851   59.5220 H       1  UNL         0.0455
     74 H         -14.8583   -5.1462   57.7021 H       1  UNL         0.0586
     75 H         -14.1658   -3.6275   58.3455 H       1  UNL         0.0586
     76 H         -12.9119   -4.2595   56.2632 H       1  UNL         0.0652
     77 H         -11.3576   -3.2857   54.6224 H       1  UNL         0.0644
     78 H         -14.3508   -0.3903   53.4865 H       1  UNL         0.0659
     79 H         -11.9763   -1.5482   52.0460 H       1  UNL         0.1528
     80 H          -9.8724   -0.8476   51.2440 H       1  UNL         0.0861
     81 H          -9.3512    1.8556   55.3126 H       1  UNL         0.0646
     82 H         -11.3120    0.3684   55.1403 H       1  UNL         0.0644
     83 H          -6.2850    1.2041   51.7703 H       1  UNL         0.0638
     84 H          -4.2089    4.5889   53.4533 H       1  UNL         0.0631
     85 H          -6.0700    4.9490   55.0265 H       1  UNL         0.0623
     86 H          -8.0464    3.4846   54.9969 H       1  UNL         0.0630
     87 H          -3.5797    1.6743   49.6945 H       1  UNL         0.1458
     88 H          -5.2472    1.5401   50.2424 H       1  UNL         0.1458
     89 H         -12.0301    1.2361   63.3230 H       1  UNL         0.0433
     90 H         -13.0181   -0.2311   63.3609 H       1  UNL         0.0433
     91 H         -13.7555    1.3311   62.9031 H       1  UNL         0.0433
     92 H          -8.0295    1.2988   58.3570 H       1  UNL         0.0280
     93 H          -9.1267    0.0306   58.9064 H       1  UNL         0.0280
     94 H          -8.2962    1.0656   60.0870 H       1  UNL         0.0280
@<TRIPOS>BOND
     1     1     2   ar
     2     1     6   ar
     3     1    52    1
     4     2     3   ar
     5     2    53    1
     6     3     4   ar
     7     3    51    1
     8     4     5   ar
     9     4     7    1
    10     5     6   ar
    11     5    54    1
    12     6    55    1
    13     7     8    1
    14     7    15    1
    15     7    56    1
    16     8     9   ar
    17     8    13   ar
    18     9    10   ar
    19     9    14    1
    20    10    11   ar
    21    10    57    1
    22    11    12   ar
    23    11    58    1
    24    12    13   ar
    25    12    59    1
    26    14    60    1
    27    14    61    1
    28    14    62    1
    29    15    16   am
    30    15    50    1
    31    16    17    2
    32    16    18    1
    33    18    19    1
    34    18    23    1
    35    18    63    1
    36    19    20    1
    37    19    64    1
    38    19    65    1
    39    20    21    1
    40    20    66    1
    41    20    67    1
    42    21    22    1
    43    21    24    1
    44    22    23    1
    45    22    68    1
    46    22    69    1
    47    23    70    1
    48    23    71    1
    49    24    25    1
    50    24    72    1
    51    24    73    1
    52    25    26    1
    53    25    74    1
    54    25    75    1
    55    26    27    1
    56    27    28   ar
    57    27    32   ar
    58    28    29   ar
    59    28    76    1
    60    29    30   ar
    61    29    77    1
    62    30    31   ar
    63    30    34    1
    64    31    32   ar
    65    31    78    1
    66    32    33    1
    67    34    35    1
    68    34    79    1
    69    35    36   ar
    70    35    40   ar
    71    36    37   ar
    72    36    80    1
    73    37    38   ar
    74    38    39   ar
    75    38    41    1
    76    39    40   ar
    77    39    81    1
    78    40    82    1
    79    41    42   ar
    80    41    46   ar
    81    42    43   ar
    82    42    83    1
    83    43    44   ar
    84    43    47    1
    85    44    45   ar
    86    44    84    1
    87    45    46   ar
    88    45    85    1
    89    46    86    1
    90    47    48    2
    91    47    49   am
    92    49    87    1
    93    49    88    1
    94    50    89    1
    95    50    90    1
    96    50    91    1
    97    51    92    1
    98    51    93    1
    99    51    94    1
@<TRIPOS>SUBSTRUCTURE
     1 UNL         1 TEMP              0 ****  ****    0 ROOT


##########                                Name:     oleObject79.pdb
##########                DOCK_Rotatable_Bonds:                  12
##########                         Heavy_Atoms:                  53
##########                    Molecular_Weight:             725.376
##########                DOCK_Rotatable_Bonds:                  12
##########                       Formal_Charge:          0.00050066
##########                     HBond_Acceptors:                   8
##########                        HBond_Donors:                   4
##########                         Heavy_Atoms:                  53
##########                          Grid_Score:          -41.554771
##########                     Grid_vdw_energy:          -40.819408
##########                      Grid_es_energy:           -0.735364
##########           Internal_energy_repulsive:           34.884159

@<TRIPOS>MOLECULE
oleObject79.pdb
 102 108 1 0 0
SMALL
NO_CHARGES


@<TRIPOS>ATOM
      1 C         -10.0049   -2.6241   59.0060 C.ar    1  UNL        -0.0620
      2 C         -10.9571   -3.3187   58.2470 C.ar    1  UNL        -0.0590
      3 C         -12.3052   -2.9105   58.2319 C.ar    1  UNL        -0.0456
      4 C         -12.7070   -1.7801   58.9920 C.ar    1  UNL        -0.0185
      5 C         -11.7329   -1.0940   59.7494 C.ar    1  UNL        -0.0565
      6 C         -10.3940   -1.5102   59.7586 C.ar    1  UNL        -0.0619
      7 C         -14.1562   -1.2532   58.9724 C.3     1  UNL         0.0931
      8 C         -14.5388   -0.3509   60.1605 C.ar    1  UNL         0.0683
      9 C         -14.7724   -0.8903   61.4515 C.ar    1  UNL        -0.0272
     10 C         -15.1188   -0.0099   62.4939 C.ar    1  UNL        -0.0559
     11 C         -15.2188    1.3626   62.2254 C.ar    1  UNL        -0.0435
     12 C         -14.9688    1.8111   60.9205 C.ar    1  UNL         0.0272
     13 N         -14.6385    0.9769   59.9172 N.ar    1  UNL        -0.2587
     14 C         -14.6623   -2.3833   61.7435 C.3     1  UNL        -0.0379
     15 N         -14.5142   -0.7027   57.6352 N.am    1  UNL        -0.2918
     16 C         -13.6221    0.1245   56.9493 C.2     1  UNL         0.2179
     17 O         -12.7022    0.6599   57.5455 O.2     1  UNL        -0.2772
     18 C         -14.0857    0.6483   55.5633 C.3     1  UNL         0.0361
     19 C         -13.8158   -0.3569   54.4071 C.3     1  UNL        -0.0412
     20 C         -12.3190   -0.4615   54.0035 C.3     1  UNL        -0.0453
     21 C         -11.6304    0.9079   53.7247 C.3     1  UNL        -0.0139
     22 C         -10.0936    0.6838   53.6707 C.3     1  UNL         0.0171
     23 N          -9.3880    1.9289   53.3057 N.pl3   1  UNL        -0.3290
     24 C          -9.7504    2.4572   51.9760 C.3     1  UNL         0.0115
     25 C         -11.2748    2.7046   51.8855 C.3     1  UNL        -0.0368
     26 C         -12.0888    1.4669   52.3395 C.3     1  UNL        -0.0446
     27 C          -8.3129    2.4128   54.0586 C.ar    1  UNL         0.0476
     28 C          -8.5541    2.9013   55.3576 C.ar    1  UNL        -0.0375
     29 C          -7.5115    3.4238   56.1380 C.ar    1  UNL        -0.0388
     30 C          -6.2051    3.4914   55.6298 C.ar    1  UNL         0.0318
     31 C          -5.9520    2.9896   54.3401 C.ar    1  UNL        -0.0202
     32 C          -6.9910    2.4605   53.5556 C.ar    1  UNL         0.0636
     33 CL         -6.5779    1.9399   51.9310 Cl      1  UNL        -0.0822
     34 N          -5.1954    4.0169   56.4335 N.pl3   1  UNL        -0.3149
     35 C          -3.8390    3.7113   56.5317 C.ar    1  UNL         0.0302
     36 C          -2.8353    4.6214   56.1519 C.ar    1  UNL        -0.0402
     37 C          -1.4786    4.2877   56.2905 C.ar    1  UNL        -0.0525
     38 C          -1.0780    3.0361   56.8205 C.ar    1  UNL        -0.0182
     39 C          -2.1018    2.1393   57.2150 C.ar    1  UNL        -0.0525
     40 C          -3.4586    2.4761   57.0806 C.ar    1  UNL        -0.0402
     41 C           0.3723    2.6776   56.9687 C.ar    1  UNL        -0.0177
     42 C           0.7972    1.7034   57.9078 C.ar    1  UNL        -0.0439
     43 C           2.1573    1.3567   58.0621 C.ar    1  UNL         0.0111
     44 C           3.1151    2.0045   57.2548 C.ar    1  UNL        -0.0518
     45 C           2.7202    2.9702   56.3179 C.ar    1  UNL        -0.0609
     46 C           1.3653    3.3023   56.1755 C.ar    1  UNL        -0.0543
     47 C           2.5469    0.3887   58.9934 C.2     1  UNL         0.1014
     48 N           1.6969   -0.3150   59.6466 N.3     1  UNL        -0.2892
     49 N           3.8428    0.1606   59.2465 N.3     1  UNL        -0.2870
     50 C         -11.9497    1.8949   54.8905 C.3     1  UNL        -0.0453
     51 C         -13.4563    2.0191   55.2028 C.3     1  UNL        -0.0412
     52 C         -15.8193   -1.0851   57.0529 C.3     1  UNL         0.0037
     53 C         -13.2820   -3.6997   57.3666 C.3     1  UNL        -0.0394
     54 H          -8.9678   -2.9451   59.0082 H       1  UNL         0.0623
     55 H         -10.6423   -4.1774   57.6612 H       1  UNL         0.0626
     56 H         -12.0131   -0.2267   60.3378 H       1  UNL         0.0627
     57 H          -9.6597   -0.9672   60.3462 H       1  UNL         0.0623
     58 H         -14.7980   -2.1252   59.1084 H       1  UNL         0.0626
     59 H         -15.3065   -0.3823   63.4970 H       1  UNL         0.0627
     60 H         -15.4829    2.0642   63.0111 H       1  UNL         0.0639
     61 H         -15.0338    2.8692   60.6695 H       1  UNL         0.0840
     62 H         -15.3807   -2.9584   61.1470 H       1  UNL         0.0280
     63 H         -14.8650   -2.6046   62.7987 H       1  UNL         0.0280
     64 H         -13.6563   -2.7593   61.5201 H       1  UNL         0.0280
     65 H         -15.1728    0.7784   55.6271 H       1  UNL         0.0401
     66 H         -14.3946   -0.0444   53.5288 H       1  UNL         0.0275
     67 H         -14.1934   -1.3503   54.6818 H       1  UNL         0.0275
     68 H         -12.2290   -1.1115   53.1236 H       1  UNL         0.0273
     69 H         -11.7711   -0.9775   54.8007 H       1  UNL         0.0273
     70 H          -9.8621   -0.0945   52.9319 H       1  UNL         0.0474
     71 H          -9.7491    0.3241   54.6493 H       1  UNL         0.0474
     72 H          -9.4623    1.7261   51.2098 H       1  UNL         0.0468
     73 H          -9.2100    3.3872   51.7609 H       1  UNL         0.0468
     74 H         -11.5430    2.9642   50.8538 H       1  UNL         0.0283
     75 H         -11.5444    3.5702   52.5020 H       1  UNL         0.0283
     76 H         -11.9605    0.6842   51.5803 H       1  UNL         0.0273
     77 H         -13.1570    1.7127   52.3435 H       1  UNL         0.0273
     78 H          -9.5576    2.8697   55.7720 H       1  UNL         0.0644
     79 H          -7.7245    3.7928   57.1374 H       1  UNL         0.0643
     80 H          -4.9437    3.0036   53.9382 H       1  UNL         0.0659
     81 H          -5.4960    4.7680   57.0413 H       1  UNL         0.1528
     82 H          -3.0983    5.5998   55.7650 H       1  UNL         0.0643
     83 H          -0.7336    5.0092   55.9698 H       1  UNL         0.0630
     84 H          -1.8469    1.1784   57.6506 H       1  UNL         0.0630
     85 H          -4.2189    1.7689   57.4002 H       1  UNL         0.0643
     86 H           0.0540    1.2035   58.5212 H       1  UNL         0.0637
     87 H           4.1691    1.7545   57.3395 H       1  UNL         0.0630
     88 H           3.4662    3.4633   55.7011 H       1  UNL         0.0623
     89 H           1.0894    4.0658   55.4548 H       1  UNL         0.0629
     90 H           0.8342   -0.4290   59.1102 H       1  UNL         0.1889
     91 H           4.3130    0.6742   59.9896 H       1  UNL         0.1258
     92 H           4.1868   -0.7976   59.2742 H       1  UNL         0.1258
     93 H         -11.5451    2.8928   54.6880 H       1  UNL         0.0273
     94 H         -11.4377    1.5464   55.7947 H       1  UNL         0.0273
     95 H         -13.9783    2.4413   54.3359 H       1  UNL         0.0275
     96 H         -13.6004    2.7427   56.0118 H       1  UNL         0.0275
     97 H         -16.3810   -0.1977   56.7407 H       1  UNL         0.0433
     98 H         -16.4359   -1.6337   57.7739 H       1  UNL         0.0433
     99 H         -15.6514   -1.7249   56.1778 H       1  UNL         0.0433
    100 H         -12.8058   -4.5766   56.9107 H       1  UNL         0.0280
    101 H         -13.6720   -3.0796   56.5497 H       1  UNL         0.0280
    102 H         -14.1315   -4.0623   57.9588 H       1  UNL         0.0280
@<TRIPOS>BOND
     1     1     2   ar
     2     1     6   ar
     3     1    54    1
     4     2     3   ar
     5     2    55    1
     6     3     4   ar
     7     3    53    1
     8     4     5   ar
     9     4     7    1
    10     5     6   ar
    11     5    56    1
    12     6    57    1
    13     7     8    1
    14     7    15    1
    15     7    58    1
    16     8     9   ar
    17     8    13   ar
    18     9    10   ar
    19     9    14    1
    20    10    11   ar
    21    10    59    1
    22    11    12   ar
    23    11    60    1
    24    12    13   ar
    25    12    61    1
    26    14    62    1
    27    14    63    1
    28    14    64    1
    29    15    16   am
    30    15    52    1
    31    16    17    2
    32    16    18    1
    33    18    19    1
    34    18    51    1
    35    18    65    1
    36    19    20    1
    37    19    66    1
    38    19    67    1
    39    20    21    1
    40    20    68    1
    41    20    69    1
    42    21    22    1
    43    21    26    1
    44    21    50    1
    45    22    23    1
    46    22    70    1
    47    22    71    1
    48    23    24    1
    49    23    27    1
    50    24    25    1
    51    24    72    1
    52    24    73    1
    53    25    26    1
    54    25    74    1
    55    25    75    1
    56    26    76    1
    57    26    77    1
    58    27    28   ar
    59    27    32   ar
    60    28    29   ar
    61    28    78    1
    62    29    30   ar
    63    29    79    1
    64    30    31   ar
    65    30    34    1
    66    31    32   ar
    67    31    80    1
    68    32    33    1
    69    34    35    1
    70    34    81    1
    71    35    36   ar
    72    35    40   ar
    73    36    37   ar
    74    36    82    1
    75    37    38   ar
    76    37    83    1
    77    38    39   ar
    78    38    41    1
    79    39    40   ar
    80    39    84    1
    81    40    85    1
    82    41    42   ar
    83    41    46   ar
    84    42    43   ar
    85    42    86    1
    86    43    44   ar
    87    43    47    1
    88    44    45   ar
    89    44    87    1
    90    45    46   ar
    91    45    88    1
    92    46    89    1
    93    47    48    1
    94    47    49    1
    95    48    90    1
    96    49    91    1
    97    49    92    1
    98    50    51    1
    99    50    93    1
   100    50    94    1
   101    51    95    1
   102    51    96    1
   103    52    97    1
   104    52    98    1
   105    52    99    1
   106    53   100    1
   107    53   101    1
   108    53   102    1
@<TRIPOS>SUBSTRUCTURE
     1 UNL         1 TEMP              0 ****  ****    0 ROOT


##########                                Name:    ZINC001591898574
##########                DOCK_Rotatable_Bonds:                  10
##########                         Heavy_Atoms:                  26
##########                    Molecular_Weight:             383.434
##########                DOCK_Rotatable_Bonds:                  10
##########                       Formal_Charge:         5.96046e-08
##########                     HBond_Acceptors:                  13
##########                        HBond_Donors:                   3
##########                         Heavy_Atoms:                  26
##########                          Grid_Score:          -40.206139
##########                     Grid_vdw_energy:          -34.909115
##########                      Grid_es_energy:           -5.297024
##########           Internal_energy_repulsive:            7.805491

@<TRIPOS>MOLECULE
ZINC001591898574
 47 48 1 0 0
SMALL
USER_CHARGES


@<TRIPOS>ATOM
      1 C1        -15.3065   -2.4839   60.7751 C.3     1  ZINC001591898574   -0.1100
      2 C2        -13.9549   -2.4397   60.1098 C.ar    1  ZINC001591898574    0.2300
      3 C3        -13.8380   -2.6597   58.7488 C.ar    1  ZINC001591898574   -0.2400
      4 C4        -12.5660   -2.6090   58.1734 C.ar    1  ZINC001591898574    0.3000
      5 C5        -12.3881   -2.8376   56.7179 C.2     1  ZINC001591898574    0.2100
      6 N6        -13.2521   -3.4028   55.8981 N.2     1  ZINC001591898574   -0.2500
      7 N7        -12.7285   -3.4151   54.7206 N.pl3   1  ZINC001591898574   -0.2200
      8 N8        -11.5606   -2.8757   54.7681 N.2     1  ZINC001591898574   -0.0400
      9 N9        -11.3198   -2.5042   55.9796 N.2     1  ZINC001591898574   -0.2500
     10 N10       -11.5166   -2.3522   58.9500 N.ar    1  ZINC001591898574   -0.5500
     11 C11       -11.6728   -2.1475   60.2486 C.ar    1  ZINC001591898574    0.5800
     12 N12       -10.5601   -1.8829   61.0282 N.pl3   1  ZINC001591898574   -0.7000
     13 C13        -9.6822   -0.7586   60.6941 C.3     1  ZINC001591898574    0.1400
     14 C14        -9.4590    0.1017   61.9395 C.3     1  ZINC001591898574   -0.1500
     15 C15        -8.2693   -0.4457   62.7308 C.3     1  ZINC001591898574    0.1200
     16 N16        -7.6890    0.6259   63.5438 N.am    1  ZINC001591898574   -0.7300
     17 C17        -8.1868    0.8875   64.7686 C.2     1  ZINC001591898574    0.4900
     18 O18        -9.1142    0.2347   65.1984 O.2     1  ZINC001591898574   -0.5300
     19 C19        -7.5910    1.9911   65.6042 C.3     1  ZINC001591898574    0.1000
     20 N20        -6.5228    1.4447   66.4449 N.am    1  ZINC001591898574   -0.9800
     21 C21        -6.7373    0.1980   67.1838 C.3     1  ZINC001591898574    0.1000
     22 S22        -5.0728    2.2363   66.5600 S.o2    1  ZINC001591898574    2.6100
     23 C23        -4.4446    2.2797   64.8587 C.3     1  ZINC001591898574   -0.6600
     24 O24        -5.4206    3.5431   66.9965 O.2     1  ZINC001591898574   -0.9500
     25 O25        -4.2711    1.3838   67.3660 O.2     1  ZINC001591898574   -0.9600
     26 N26       -12.8676   -2.1846   60.8202 N.ar    1  ZINC001591898574   -0.5600
     27 H27       -15.7523   -1.4894   60.7584 H       1  ZINC001591898574    0.0900
     28 H28       -15.9521   -3.1805   60.2403 H       1  ZINC001591898574    0.0900
     29 H29       -15.1925   -2.8136   61.8078 H       1  ZINC001591898574    0.0900
     30 H30       -14.7096   -2.8662   58.1455 H       1  ZINC001591898574    0.1600
     31 H31       -13.1486   -3.7744   53.9235 H       1  ZINC001591898574    0.4800
     32 H32       -10.3617   -2.4417   61.7957 H       1  ZINC001591898574    0.4200
     33 H33        -8.7244   -1.1388   60.3386 H       1  ZINC001591898574    0.0700
     34 H34       -10.1458   -0.1550   59.9138 H       1  ZINC001591898574    0.0700
     35 H35        -9.2538    1.1292   61.6394 H       1  ZINC001591898574    0.0800
     36 H36       -10.3525    0.0767   62.5632 H       1  ZINC001591898574    0.0800
     37 H37        -8.6059   -1.2533   63.3809 H       1  ZINC001591898574    0.0700
     38 H38        -7.5169   -0.8254   62.0395 H       1  ZINC001591898574    0.0700
     39 H39        -6.9465    1.1472   63.2006 H       1  ZINC001591898574    0.4000
     40 H40        -7.1809    2.7608   64.9505 H       1  ZINC001591898574    0.1200
     41 H41        -8.3647    2.4261   66.2368 H       1  ZINC001591898574    0.1300
     42 H42        -6.4344   -0.6473   66.5659 H       1  ZINC001591898574    0.0600
     43 H43        -6.1442    0.2109   68.0981 H       1  ZINC001591898574    0.0700
     44 H44        -7.7933    0.1029   67.4370 H       1  ZINC001591898574    0.0700
     45 H45        -5.1510    2.8147   64.2241 H       1  ZINC001591898574    0.1300
     46 H46        -3.4812    2.7893   64.8401 H       1  ZINC001591898574    0.1200
     47 H47        -4.3239    1.2611   64.4899 H       1  ZINC001591898574    0.1300
@<TRIPOS>BOND
     1     1     2    1
     2     1    27    1
     3     1    28    1
     4     1    29    1
     5     2    26   ar
     6     2     3   ar
     7     3     4   ar
     8     3    30    1
     9     4     5    1
    10     4    10   ar
    11     5     9    1
    12     5     6    2
    13     6     7    1
    14     7     8    1
    15     7    31    1
    16     8     9    2
    17    10    11   ar
    18    11    12    1
    19    11    26   ar
    20    12    13    1
    21    12    32    1
    22    13    14    1
    23    13    33    1
    24    13    34    1
    25    14    15    1
    26    14    35    1
    27    14    36    1
    28    15    16    1
    29    15    37    1
    30    15    38    1
    31    16    17   am
    32    16    39    1
    33    17    18    2
    34    17    19    1
    35    19    20    1
    36    19    40    1
    37    19    41    1
    38    20    21    1
    39    20    22   am
    40    21    42    1
    41    21    43    1
    42    21    44    1
    43    22    23    1
    44    22    24    2
    45    22    25    2
    46    23    45    1
    47    23    46    1
    48    23    47    1
@<TRIPOS>SUBSTRUCTURE
     1 ZINC001591898574        1 TEMP              0 ****  ****    0 ROOT


##########                                Name:    ZINC000508765459
##########                DOCK_Rotatable_Bonds:                  10
##########                         Heavy_Atoms:                  29
##########                    Molecular_Weight:               405.5
##########                DOCK_Rotatable_Bonds:                  10
##########                       Formal_Charge:         -6.4075e-07
##########                     HBond_Acceptors:                  10
##########                        HBond_Donors:                   1
##########                         Heavy_Atoms:                  29
##########                          Grid_Score:          -40.109688
##########                     Grid_vdw_energy:          -39.694466
##########                      Grid_es_energy:           -0.415223
##########           Internal_energy_repulsive:           17.012842

@<TRIPOS>MOLECULE
ZINC000508765459
 60 62 1 0 0
SMALL
USER_CHARGES


@<TRIPOS>ATOM
      1 C1        -14.4096   -5.8670   56.5341 C.3     1  ZINC000508765459    0.0300
      2 O2        -14.3109   -4.7208   57.3818 O.3     1  ZINC000508765459   -0.3900
      3 C3        -13.9670   -3.5168   56.6934 C.3     1  ZINC000508765459    0.0500
      4 C4        -12.4514   -3.3139   56.7467 C.3     1  ZINC000508765459    0.1100
      5 N5        -12.0251   -2.5141   55.5958 N.am    1  ZINC000508765459   -0.5900
      6 C6        -11.6729   -3.2219   54.3724 C.3     1  ZINC000508765459    0.1000
      7 C7        -11.7803   -2.2956   53.1595 C.3     1  ZINC000508765459    0.1200
      8 N8        -11.1124   -1.0255   53.4906 N.am    1  ZINC000508765459   -0.6400
      9 C9        -10.0442   -0.5922   52.7923 C.2     1  ZINC000508765459    0.7100
     10 O10        -9.6140   -1.2531   51.8669 O.2     1  ZINC000508765459   -0.5800
     11 N11        -9.4529    0.5738   53.1199 N.am    1  ZINC000508765459   -0.7400
     12 C12        -8.2927    1.0457   52.3597 C.3     1  ZINC000508765459    0.1400
     13 C13        -8.2301    2.5732   52.4206 C.3     1  ZINC000508765459   -0.1400
     14 C14        -7.4188    3.0981   51.2345 C.3     1  ZINC000508765459    0.0600
     15 N15        -6.0006    2.7668   51.4263 N.3     1  ZINC000508765459   -0.5400
     16 C16        -5.3934    3.6251   52.4531 C.3     1  ZINC000508765459    0.0500
     17 C17        -3.9417    3.1965   52.6793 C.3     1  ZINC000508765459    0.0700
     18 N18        -3.2025    3.2919   51.4127 N.3     1  ZINC000508765459   -0.4600
     19 C19        -1.8663    2.9796   51.5935 C.ar    1  ZINC000508765459    0.4900
     20 N20        -1.3157    2.0355   50.8448 N.ar    1  ZINC000508765459   -0.5500
     21 C21        -0.0413    1.7131   50.9919 C.ar    1  ZINC000508765459    0.1700
     22 C22         0.7184    2.3763   51.9428 C.ar    1  ZINC000508765459   -0.2600
     23 C23         0.1108    3.3587   52.7089 C.ar    1  ZINC000508765459    0.1700
     24 N24        -1.1668    3.6359   52.5077 N.ar    1  ZINC000508765459   -0.5300
     25 C25        -3.8097    2.4336   50.3860 C.3     1  ZINC000508765459    0.0700
     26 C26        -5.2614    2.8622   50.1598 C.3     1  ZINC000508765459    0.0600
     27 C27       -11.6586   -0.2491   54.6135 C.3     1  ZINC000508765459    0.1000
     28 C28       -11.9917   -1.1885   55.7400 C.2     1  ZINC000508765459    0.5100
     29 O29       -12.2328   -0.7197   56.8322 O.2     1  ZINC000508765459   -0.5400
     30 H30       -13.4518   -6.0396   56.0433 H       1  ZINC000508765459    0.0400
     31 H31       -14.6738   -6.7394   57.1319 H       1  ZINC000508765459    0.0900
     32 H32       -15.1785   -5.6965   55.7805 H       1  ZINC000508765459    0.0400
     33 H33       -14.2877   -3.5881   55.6541 H       1  ZINC000508765459    0.0500
     34 H34       -14.4637   -2.6714   57.1697 H       1  ZINC000508765459    0.0600
     35 H35       -12.1864   -2.7951   57.6679 H       1  ZINC000508765459    0.1100
     36 H36       -11.9539   -4.2835   56.7198 H       1  ZINC000508765459    0.0900
     37 H37       -10.6503   -3.5905   54.4529 H       1  ZINC000508765459    0.0700
     38 H38       -12.3487   -4.0667   54.2396 H       1  ZINC000508765459    0.1000
     39 H39       -11.2911   -2.7556   52.3010 H       1  ZINC000508765459    0.1200
     40 H40       -12.8296   -2.1104   52.9300 H       1  ZINC000508765459    0.0800
     41 H41        -9.7953    1.1005   53.8589 H       1  ZINC000508765459    0.4000
     42 H42        -7.3824    0.6273   52.7890 H       1  ZINC000508765459    0.0700
     43 H43        -8.3847    0.7270   51.3214 H       1  ZINC000508765459    0.0700
     44 H44        -9.2404    2.9802   52.3785 H       1  ZINC000508765459    0.0700
     45 H45        -7.7532    2.8804   53.3514 H       1  ZINC000508765459    0.0800
     46 H46        -7.7787    2.6362   50.3152 H       1  ZINC000508765459    0.0800
     47 H47        -7.5331    4.1801   51.1665 H       1  ZINC000508765459    0.0400
     48 H48        -5.4187    4.6630   52.1209 H       1  ZINC000508765459    0.0500
     49 H49        -5.9508    3.5275   53.3847 H       1  ZINC000508765459    0.0900
     50 H50        -3.4806    3.8503   53.4195 H       1  ZINC000508765459    0.0900
     51 H51        -3.9179    2.1673   53.0375 H       1  ZINC000508765459    0.0600
     52 H52         0.4019    0.9424   50.3788 H       1  ZINC000508765459    0.1700
     53 H53         1.7611    2.1327   52.0840 H       1  ZINC000508765459    0.1500
     54 H54         0.6747    3.8939   53.4586 H       1  ZINC000508765459    0.1700
     55 H55        -3.2524    2.5311   49.4543 H       1  ZINC000508765459    0.1000
     56 H56        -3.7844    1.3958   50.7182 H       1  ZINC000508765459    0.0500
     57 H57        -5.7225    2.2083   49.4196 H       1  ZINC000508765459    0.0900
     58 H58        -5.2851    3.8914   49.8015 H       1  ZINC000508765459    0.0500
     59 H59       -10.9193    0.4788   54.9480 H       1  ZINC000508765459    0.1100
     60 H60       -12.5636    0.2676   54.2941 H       1  ZINC000508765459    0.1100
@<TRIPOS>BOND
     1     1     2    1
     2     1    30    1
     3     1    31    1
     4     1    32    1
     5     2     3    1
     6     3     4    1
     7     3    33    1
     8     3    34    1
     9     4     5    1
    10     4    35    1
    11     4    36    1
    12     5    28   am
    13     5     6    1
    14     6     7    1
    15     6    37    1
    16     6    38    1
    17     7     8    1
    18     7    39    1
    19     7    40    1
    20     8     9   am
    21     8    27    1
    22     9    10    2
    23     9    11   am
    24    11    12    1
    25    11    41    1
    26    12    13    1
    27    12    42    1
    28    12    43    1
    29    13    14    1
    30    13    44    1
    31    13    45    1
    32    14    15    1
    33    14    46    1
    34    14    47    1
    35    15    26    1
    36    15    16    1
    37    16    17    1
    38    16    48    1
    39    16    49    1
    40    17    18    1
    41    17    50    1
    42    17    51    1
    43    18    19    1
    44    18    25    1
    45    19    24   ar
    46    19    20   ar
    47    20    21   ar
    48    21    22   ar
    49    21    52    1
    50    22    23   ar
    51    22    53    1
    52    23    24   ar
    53    23    54    1
    54    25    26    1
    55    25    55    1
    56    25    56    1
    57    26    57    1
    58    26    58    1
    59    27    28    1
    60    27    59    1
    61    27    60    1
    62    28    29    2
@<TRIPOS>SUBSTRUCTURE
     1 ZINC000508765459        1 TEMP              0 ****  ****    0 ROOT


##########                                Name:    ZINC000770814339
##########                DOCK_Rotatable_Bonds:                  13
##########                         Heavy_Atoms:                  28
##########                    Molecular_Weight:             409.423
##########                DOCK_Rotatable_Bonds:                  13
##########                       Formal_Charge:          -0.0100008
##########                     HBond_Acceptors:                  12
##########                        HBond_Donors:                   4
##########                         Heavy_Atoms:                  28
##########                          Grid_Score:          -38.921604
##########                     Grid_vdw_energy:          -36.641010
##########                      Grid_es_energy:           -2.280594
##########           Internal_energy_repulsive:            8.871243

@<TRIPOS>MOLECULE
ZINC000770814339
 47 48 1 0 0
SMALL
USER_CHARGES


@<TRIPOS>ATOM
      1 C1         -5.6800    2.8315   50.2516 C.3     1  ZINC000770814339   -0.1500
      2 C2         -4.2620    2.4304   49.8398 C.3     1  ZINC000770814339    0.0600
      3 O3         -3.3408    3.5035   50.1688 O.3     1  ZINC000770814339   -0.3500
      4 C4         -3.2375    3.8424   51.4634 C.2     1  ZINC000770814339    0.4700
      5 O5         -3.2974    5.0040   51.7905 O.2     1  ZINC000770814339   -0.4800
      6 C6         -3.0466    2.7741   52.5091 C.3     1  ZINC000770814339    0.0700
      7 O7         -3.2150    3.3441   53.8087 O.3     1  ZINC000770814339   -0.1800
      8 N8         -4.5666    3.5555   54.1741 N.2     1  ZINC000770814339   -0.2800
      9 C9         -4.9334    3.4245   55.4176 C.2     1  ZINC000770814339    0.1800
     10 C10        -6.3484    3.6440   55.7999 C.2     1  ZINC000770814339    0.5900
     11 O11        -6.9598    4.5918   55.3482 O.2     1  ZINC000770814339   -0.5100
     12 N12        -6.9569    2.7922   56.6488 N.am    1  ZINC000770814339   -0.7000
     13 C13        -8.3561    3.0081   57.0254 C.3     1  ZINC000770814339    0.1500
     14 C14        -8.6320    2.3305   58.3429 C.ar    1  ZINC000770814339   -0.0600
     15 C15        -9.0707    3.0727   59.4235 C.ar    1  ZINC000770814339   -0.1200
     16 C16        -9.3239    2.4510   60.6319 C.ar    1  ZINC000770814339   -0.0200
     17 C17        -9.1388    1.0871   60.7597 C.ar    1  ZINC000770814339   -0.6700
     18 S18        -9.4610    0.2949   62.3003 S.o2    1  ZINC000770814339    2.7000
     19 N19        -8.5393    1.0571   63.4456 N.am    1  ZINC000770814339   -1.2500
     20 O20       -10.8158    0.5784   62.6217 O.2     1  ZINC000770814339   -0.9600
     21 O21        -8.9491   -1.0259   62.1870 O.2     1  ZINC000770814339   -0.9600
     22 C22        -8.7015    0.3447   59.6789 C.ar    1  ZINC000770814339   -0.0200
     23 C23        -8.4520    0.9657   58.4693 C.ar    1  ZINC000770814339   -0.1200
     24 C24        -3.9393    3.0578   56.4459 C.2     1  ZINC000770814339    0.0600
     25 C25        -3.4487    3.8773   57.4396 C.2     1  ZINC000770814339   -0.2000
     26 C26        -2.5360    3.1354   58.1879 C.2     1  ZINC000770814339    0.0400
     27 N27        -2.4657    1.9280   57.6870 N.2     1  ZINC000770814339   -0.2600
     28 N28        -3.3377    1.8421   56.5947 N.pl3   1  ZINC000770814339   -0.4400
     29 H29        -6.3716    2.0260   50.0046 H       1  ZINC000770814339    0.0800
     30 H30        -5.7076    3.0177   51.3251 H       1  ZINC000770814339    0.0700
     31 H31        -5.9710    3.7364   49.7182 H       1  ZINC000770814339    0.0700
     32 H32        -3.9711    1.5254   50.3731 H       1  ZINC000770814339    0.0700
     33 H33        -4.2345    2.2443   48.7662 H       1  ZINC000770814339    0.0700
     34 H34        -3.7832    1.9845   52.3604 H       1  ZINC000770814339    0.1100
     35 H35        -2.0436    2.3563   52.4229 H       1  ZINC000770814339    0.1100
     36 H36        -6.4684    2.0361   57.0105 H       1  ZINC000770814339    0.4100
     37 H37        -8.5460    4.0772   57.1199 H       1  ZINC000770814339    0.0900
     38 H38        -9.0075    2.5896   56.2582 H       1  ZINC000770814339    0.0900
     39 H39        -9.2153    4.1383   59.3236 H       1  ZINC000770814339    0.1400
     40 H40        -9.6659    3.0311   61.4762 H       1  ZINC000770814339    0.1500
     41 H41        -8.5750    0.7651   64.3699 H       1  ZINC000770814339    0.4200
     42 H42        -7.9636    1.7955   63.1921 H       1  ZINC000770814339    0.4200
     43 H43        -8.5572   -0.7210   59.7785 H       1  ZINC000770814339    0.1500
     44 H44        -8.1103    0.3857   57.6248 H       1  ZINC000770814339    0.1400
     45 H45        -3.7219    4.9085   57.6080 H       1  ZINC000770814339    0.1700
     46 H46        -1.9789    3.4970   59.0396 H       1  ZINC000770814339    0.1900
     47 H47        -3.4838    1.0602   56.0397 H       1  ZINC000770814339    0.4500
@<TRIPOS>BOND
     1     1     2    1
     2     1    29    1
     3     1    30    1
     4     1    31    1
     5     2     3    1
     6     2    32    1
     7     2    33    1
     8     3     4    1
     9     4     5    2
    10     4     6    1
    11     6     7    1
    12     6    34    1
    13     6    35    1
    14     7     8    1
    15     8     9    2
    16     9    10    1
    17     9    24    1
    18    10    11    2
    19    10    12   am
    20    12    13    1
    21    12    36    1
    22    13    14    1
    23    13    37    1
    24    13    38    1
    25    14    23   ar
    26    14    15   ar
    27    15    16   ar
    28    15    39    1
    29    16    17   ar
    30    16    40    1
    31    17    18    1
    32    17    22   ar
    33    18    19   am
    34    18    20    2
    35    18    21    2
    36    19    41    1
    37    19    42    1
    38    22    23   ar
    39    22    43    1
    40    23    44    1
    41    24    28    1
    42    24    25    2
    43    25    26    1
    44    25    45    1
    45    26    27    2
    46    26    46    1
    47    27    28    1
    48    28    47    1
@<TRIPOS>SUBSTRUCTURE
     1 ZINC000770814339        1 TEMP              0 ****  ****    0 ROOT


##########                                Name:    ZINC000428748914
##########                DOCK_Rotatable_Bonds:                  11
##########                         Heavy_Atoms:                  30
##########                    Molecular_Weight:             413.492
##########                DOCK_Rotatable_Bonds:                  11
##########                       Formal_Charge:           0.0199993
##########                     HBond_Acceptors:                   7
##########                        HBond_Donors:                   3
##########                         Heavy_Atoms:                  30
##########                          Grid_Score:          -38.666573
##########                     Grid_vdw_energy:          -32.621613
##########                      Grid_es_energy:           -6.044961
##########           Internal_energy_repulsive:           19.756933

@<TRIPOS>MOLECULE
ZINC000428748914
 58 61 1 0 0
SMALL
USER_CHARGES


@<TRIPOS>ATOM
      1 O1         -8.9368   -0.1607   64.7005 O.2     1  ZINC000428748914   -0.5900
      2 C2         -8.6842    0.7736   63.9645 C.2     1  ZINC000428748914    0.7000
      3 N3         -8.0090    1.8402   64.4367 N.am    1  ZINC000428748914   -0.7400
      4 C4         -7.5846    1.8763   65.8385 C.3     1  ZINC000428748914    0.1900
      5 C5         -6.0817    1.7905   65.9106 C.ar    1  ZINC000428748914   -0.2000
      6 C6         -5.2944    2.7809   65.3401 C.ar    1  ZINC000428748914   -0.0200
      7 C7         -3.9182    2.6632   65.4292 C.ar    1  ZINC000428748914   -0.1900
      8 C8         -3.3747    1.5647   66.0824 C.ar    1  ZINC000428748914    0.3300
      9 O9         -2.0272    1.4380   66.1768 O.3     1  ZINC000428748914   -0.3000
     10 C10        -1.2362    2.2699   65.3258 C.3     1  ZINC000428748914    0.0800
     11 C11         0.2723    2.0229   65.5762 C.3     1  ZINC000428748914   -0.1400
     12 C12         0.9195    2.4844   64.2468 C.3     1  ZINC000428748914   -0.1200
     13 C13        -0.0722    2.0177   63.1612 C.3     1  ZINC000428748914   -0.1200
     14 C14        -1.4428    1.8813   63.8473 C.3     1  ZINC000428748914   -0.1200
     15 N15        -4.1584    0.6409   66.6138 N.ar    1  ZINC000428748914   -0.5400
     16 C16        -5.4733    0.7285   66.5501 C.ar    1  ZINC000428748914    0.1600
     17 N17        -9.0747    0.7403   62.6749 N.am    1  ZINC000428748914   -0.7400
     18 C18        -9.8087   -0.4191   62.1615 C.3     1  ZINC000428748914    0.1800
     19 C19        -9.9429   -0.3054   60.6416 C.3     1  ZINC000428748914   -0.1300
     20 C20        -8.7114   -0.7258   59.8371 C.3     1  ZINC000428748914    0.1100
     21 O21        -8.3461   -2.0620   60.1885 O.3     1  ZINC000428748914   -0.5700
     22 C22       -10.7878    0.8453   60.0912 C.3     1  ZINC000428748914   -0.1400
     23 C23       -11.3165   -0.5892   60.0306 C.3     1  ZINC000428748914   -0.1000
     24 H24       -12.1247   -0.8568   60.7114 H       1  ZINC000428748914    0.1200
     25 C25       -11.3534   -1.2607   58.6820 C.ar    1  ZINC000428748914   -0.0700
     26 C26       -10.9991   -2.5917   58.5632 C.ar    1  ZINC000428748914   -0.0900
     27 C27       -11.0325   -3.2085   57.3270 C.ar    1  ZINC000428748914   -0.1500
     28 C28       -11.4217   -2.4931   56.2073 C.ar    1  ZINC000428748914    0.1000
     29 F29       -11.4552   -3.0952   54.9983 F       1  ZINC000428748914   -0.1400
     30 C30       -11.7768   -1.1602   56.3275 C.ar    1  ZINC000428748914   -0.1500
     31 C31       -11.7471   -0.5468   57.5655 C.ar    1  ZINC000428748914   -0.0800
     32 H32        -7.8040    2.5838   63.8485 H       1  ZINC000428748914    0.4000
     33 H33        -7.9176    2.8084   66.2950 H       1  ZINC000428748914    0.0800
     34 H34        -8.0228    1.0333   66.3726 H       1  ZINC000428748914    0.0800
     35 H35        -5.7453    3.6240   64.8378 H       1  ZINC000428748914    0.1400
     36 H36        -3.2754    3.4154   64.9961 H       1  ZINC000428748914    0.1400
     37 H37        -1.4840    3.3197   65.4826 H       1  ZINC000428748914    0.1000
     38 H38         0.6295    2.6272   66.4100 H       1  ZINC000428748914    0.0700
     39 H39         0.4663    0.9650   65.7535 H       1  ZINC000428748914    0.0800
     40 H40         1.0220    3.5693   64.2289 H       1  ZINC000428748914    0.0700
     41 H41         1.8893    2.0063   64.1085 H       1  ZINC000428748914    0.0700
     42 H42        -0.1265    2.7572   62.3623 H       1  ZINC000428748914    0.0700
     43 H43         0.2412    1.0545   62.7584 H       1  ZINC000428748914    0.0700
     44 H44        -1.7946    0.8520   63.7774 H       1  ZINC000428748914    0.0800
     45 H45        -2.1622    2.5547   63.3813 H       1  ZINC000428748914    0.0700
     46 H46        -6.0814   -0.0448   66.9958 H       1  ZINC000428748914    0.1600
     47 H47        -8.8698    1.4839   62.0867 H       1  ZINC000428748914    0.3900
     48 H48        -9.2674   -1.3315   62.4113 H       1  ZINC000428748914    0.0700
     49 H49       -10.8005   -0.4500   62.6126 H       1  ZINC000428748914    0.0900
     50 H50        -8.9398   -0.6797   58.7723 H       1  ZINC000428748914    0.0500
     51 H51        -7.8840   -0.0523   60.0606 H       1  ZINC000428748914    0.0600
     52 H52        -7.3916   -2.2126   60.2230 H       1  ZINC000428748914    0.3800
     53 H53       -11.2480    1.5213   60.8119 H       1  ZINC000428748914    0.1100
     54 H54       -10.4663    1.3032   59.1558 H       1  ZINC000428748914    0.1100
     55 H55       -10.6956   -3.1495   59.4368 H       1  ZINC000428748914    0.1400
     56 H56       -10.7551   -4.2481   57.2343 H       1  ZINC000428748914    0.1400
     57 H57       -12.0802   -0.6011   55.4547 H       1  ZINC000428748914    0.1400
     58 H58       -12.0244    0.4927   57.6596 H       1  ZINC000428748914    0.1300
@<TRIPOS>BOND
     1     1     2    2
     2     2     3   am
     3     2    17   am
     4     3     4    1
     5     3    32    1
     6     4     5    1
     7     4    33    1
     8     4    34    1
     9     5    16   ar
    10     5     6   ar
    11     6     7   ar
    12     6    35    1
    13     7     8   ar
    14     7    36    1
    15     8     9    1
    16     8    15   ar
    17     9    10    1
    18    10    14    1
    19    10    11    1
    20    10    37    1
    21    11    12    1
    22    11    38    1
    23    11    39    1
    24    12    13    1
    25    12    40    1
    26    12    41    1
    27    13    14    1
    28    13    42    1
    29    13    43    1
    30    14    44    1
    31    14    45    1
    32    15    16   ar
    33    16    46    1
    34    17    18    1
    35    17    47    1
    36    18    19    1
    37    18    48    1
    38    18    49    1
    39    19    23    1
    40    19    20    1
    41    19    22    1
    42    20    21    1
    43    20    50    1
    44    20    51    1
    45    21    52    1
    46    22    23    1
    47    22    53    1
    48    22    54    1
    49    23    24    1
    50    23    25    1
    51    25    31   ar
    52    25    26   ar
    53    26    27   ar
    54    26    55    1
    55    27    28   ar
    56    27    56    1
    57    28    29    1
    58    28    30   ar
    59    30    31   ar
    60    30    57    1
    61    31    58    1
@<TRIPOS>SUBSTRUCTURE
     1 ZINC000428748914        1 TEMP              0 ****  ****    0 ROOT


##########                                Name:    ZINC000027473870
##########                DOCK_Rotatable_Bonds:                  10
##########                         Heavy_Atoms:                  31
##########                    Molecular_Weight:             422.502
##########                DOCK_Rotatable_Bonds:                  10
##########                       Formal_Charge:        -7.45058e-08
##########                     HBond_Acceptors:                   7
##########                        HBond_Donors:                   1
##########                         Heavy_Atoms:                  31
##########                          Grid_Score:          -38.472778
##########                     Grid_vdw_energy:          -38.132896
##########                      Grid_es_energy:           -0.339883
##########           Internal_energy_repulsive:           14.217820

@<TRIPOS>MOLECULE
ZINC000027473870
 58 60 1 0 0
SMALL
USER_CHARGES


@<TRIPOS>ATOM
      1 C1         -9.1373    1.1807   58.0660 C.3     1  ZINC000027473870   -0.1400
      2 C2        -10.6405    0.9522   58.2364 C.3     1  ZINC000027473870   -0.0800
      3 C3        -10.9076   -0.5199   58.4165 C.2     1  ZINC000027473870    0.1700
      4 C4        -11.3199   -1.4019   57.4374 C.2     1  ZINC000027473870   -0.2900
      5 C5        -11.5802   -1.0796   56.0228 C.2     1  ZINC000027473870    0.6000
      6 O6        -12.6501   -1.3663   55.5207 O.2     1  ZINC000027473870   -0.5400
      7 N7        -10.6326   -0.4671   55.2856 N.am    1  ZINC000027473870   -0.7200
      8 C8        -10.8921   -0.1453   53.8801 C.3     1  ZINC000027473870    0.1600
      9 C9         -9.5992    0.2329   53.2045 C.ar    1  ZINC000027473870   -0.0900
     10 C10        -9.1738   -0.4680   52.0900 C.ar    1  ZINC000027473870   -0.1100
     11 C11        -7.9910   -0.1273   51.4670 C.ar    1  ZINC000027473870   -0.1100
     12 C12        -7.2231    0.9273   51.9634 C.ar    1  ZINC000027473870   -0.1200
     13 C13        -5.9546    1.2983   51.3005 C.2     1  ZINC000027473870    0.5600
     14 O14        -4.9104    0.7894   51.6584 O.2     1  ZINC000027473870   -0.5300
     15 N15        -5.9561    2.2008   50.2995 N.am    1  ZINC000027473870   -0.6100
     16 C16        -4.6993    2.5684   49.6428 C.3     1  ZINC000027473870    0.1100
     17 C17        -3.9452    3.5763   50.5125 C.3     1  ZINC000027473870   -0.1700
     18 C18        -7.2147    2.8141   49.8681 C.3     1  ZINC000027473870    0.0900
     19 C19        -7.4169    4.1379   50.6082 C.3     1  ZINC000027473870   -0.1800
     20 C20        -7.6582    1.6306   53.0877 C.ar    1  ZINC000027473870   -0.0700
     21 C21        -8.8456    1.2830   53.6981 C.ar    1  ZINC000027473870   -0.1000
     22 C22       -11.4452   -2.6716   58.0452 C.2     1  ZINC000027473870    0.0900
     23 N23       -11.1274   -2.5503   59.3049 N.2     1  ZINC000027473870   -0.2800
     24 N24       -10.7826   -1.2182   59.5595 N.pl3   1  ZINC000027473870   -0.3100
     25 C25       -10.3838   -0.6972   60.7987 C.ar    1  ZINC000027473870    0.1300
     26 C26       -11.2744    0.0500   61.5576 C.ar    1  ZINC000027473870   -0.0900
     27 C27       -10.8799    0.5619   62.7782 C.ar    1  ZINC000027473870   -0.1300
     28 C28        -9.5969    0.3303   63.2451 C.ar    1  ZINC000027473870    0.1100
     29 F29        -9.2128    0.8315   64.4395 F       1  ZINC000027473870   -0.1300
     30 C30        -8.7071   -0.4149   62.4893 C.ar    1  ZINC000027473870   -0.1400
     31 C31        -9.0996   -0.9327   61.2708 C.ar    1  ZINC000027473870   -0.0700
     32 H32        -8.9520    2.2325   57.8484 H       1  ZINC000027473870    0.0700
     33 H33        -8.6212    0.9034   58.9851 H       1  ZINC000027473870    0.0700
     34 H34        -8.7678    0.5688   57.2430 H       1  ZINC000027473870    0.0500
     35 H35       -10.9936    1.4955   59.1129 H       1  ZINC000027473870    0.1200
     36 H36       -11.1652    1.3111   57.3509 H       1  ZINC000027473870    0.0800
     37 H37        -9.7787   -0.2395   55.6856 H       1  ZINC000027473870    0.4000
     38 H38       -11.3219   -1.0141   53.3818 H       1  ZINC000027473870    0.0800
     39 H39       -11.5903    0.6896   53.8216 H       1  ZINC000027473870    0.0800
     40 H40        -9.7688   -1.2839   51.7070 H       1  ZINC000027473870    0.1300
     41 H41        -7.6596   -0.6756   50.5976 H       1  ZINC000027473870    0.1500
     42 H42        -4.0868    1.6771   49.5055 H       1  ZINC000027473870    0.0800
     43 H43        -4.9137    3.0149   48.6719 H       1  ZINC000027473870    0.0800
     44 H44        -3.0101    3.8498   50.0239 H       1  ZINC000027473870    0.0700
     45 H45        -4.5576    4.4675   50.6498 H       1  ZINC000027473870    0.0600
     46 H46        -3.7308    3.1296   51.4834 H       1  ZINC000027473870    0.0600
     47 H47        -7.1793    2.9997   48.7947 H       1  ZINC000027473870    0.0800
     48 H48        -8.0426    2.1418   50.0935 H       1  ZINC000027473870    0.0900
     49 H49        -8.4496    4.4659   50.4905 H       1  ZINC000027473870    0.0700
     50 H50        -7.1980    3.9994   51.6669 H       1  ZINC000027473870    0.0700
     51 H51        -6.7469    4.8916   50.1943 H       1  ZINC000027473870    0.0600
     52 H52        -7.0684    2.4474   53.4769 H       1  ZINC000027473870    0.1300
     53 H53        -9.1836    1.8265   54.5680 H       1  ZINC000027473870    0.1300
     54 H54       -11.7512   -3.5830   57.5531 H       1  ZINC000027473870    0.1900
     55 H55       -12.2750    0.2311   61.1937 H       1  ZINC000027473870    0.1500
     56 H56       -11.5724    1.1434   63.3687 H       1  ZINC000027473870    0.1500
     57 H57        -7.7068   -0.5941   62.8550 H       1  ZINC000027473870    0.1500
     58 H58        -8.4055   -1.5141   60.6820 H       1  ZINC000027473870    0.1400
@<TRIPOS>BOND
     1     1     2    1
     2     1    32    1
     3     1    33    1
     4     1    34    1
     5     2     3    1
     6     2    35    1
     7     2    36    1
     8     3    24    1
     9     3     4    2
    10     4     5    1
    11     4    22    1
    12     5     6    2
    13     5     7   am
    14     7     8    1
    15     7    37    1
    16     8     9    1
    17     8    38    1
    18     8    39    1
    19     9    21   ar
    20     9    10   ar
    21    10    11   ar
    22    10    40    1
    23    11    12   ar
    24    11    41    1
    25    12    13    1
    26    12    20   ar
    27    13    14    2
    28    13    15   am
    29    15    16    1
    30    15    18    1
    31    16    17    1
    32    16    42    1
    33    16    43    1
    34    17    44    1
    35    17    45    1
    36    17    46    1
    37    18    19    1
    38    18    47    1
    39    18    48    1
    40    19    49    1
    41    19    50    1
    42    19    51    1
    43    20    21   ar
    44    20    52    1
    45    21    53    1
    46    22    23    2
    47    22    54    1
    48    23    24    1
    49    24    25    1
    50    25    31   ar
    51    25    26   ar
    52    26    27   ar
    53    26    55    1
    54    27    28   ar
    55    27    56    1
    56    28    29    1
    57    28    30   ar
    58    30    31   ar
    59    30    57    1
    60    31    58    1
@<TRIPOS>SUBSTRUCTURE
     1 ZINC000027473870        1 TEMP              0 ****  ****    0 ROOT


##########                                Name:    ZINC000599797189
##########                DOCK_Rotatable_Bonds:                  13
##########                         Heavy_Atoms:                  23
##########                    Molecular_Weight:             329.313
##########                DOCK_Rotatable_Bonds:                  13
##########                       Formal_Charge:          0.00999949
##########                     HBond_Acceptors:                  11
##########                        HBond_Donors:                   3
##########                         Heavy_Atoms:                  23
##########                          Grid_Score:          -38.019001
##########                     Grid_vdw_energy:          -32.622593
##########                      Grid_es_energy:           -5.396409
##########           Internal_energy_repulsive:            8.387377

@<TRIPOS>MOLECULE
ZINC000599797189
 42 42 1 0 0
SMALL
USER_CHARGES


@<TRIPOS>ATOM
      1 C1        -15.2333   -2.6011   60.4306 C.3     1  ZINC000599797189   -0.1500
      2 C2        -14.4816   -2.1338   59.1825 C.3     1  ZINC000599797189    0.0600
      3 O3        -13.0666   -2.4222   59.3335 O.3     1  ZINC000599797189   -0.3600
      4 C4        -12.3297   -2.4619   58.2124 C.2     1  ZINC000599797189    0.4500
      5 O5        -12.8315   -2.1823   57.1494 O.2     1  ZINC000599797189   -0.4800
      6 C6        -10.8764   -2.8552   58.2793 C.3     1  ZINC000599797189    0.1500
      7 N7        -10.1427   -1.8778   59.0872 N.pl3   1  ZINC000599797189   -0.3800
      8 C8         -9.8709   -0.6039   58.7575 C.2     1  ZINC000599797189    0.2800
      9 N9         -9.1996   -0.0614   59.7412 N.2     1  ZINC000599797189   -0.5100
     10 C10        -9.0234   -0.9576   60.7167 C.2     1  ZINC000599797189    0.4700
     11 N11        -8.3498   -0.7284   61.9211 N.am    1  ZINC000599797189   -0.6400
     12 C12        -8.9433   -0.0176   62.9004 C.2     1  ZINC000599797189    0.7100
     13 O13       -10.0634    0.4258   62.7365 O.2     1  ZINC000599797189   -0.5300
     14 N14        -8.2949    0.2018   64.0614 N.am    1  ZINC000599797189   -0.7300
     15 C15        -8.9407    0.9729   65.1266 C.3     1  ZINC000599797189    0.1100
     16 C16        -8.5231    0.4119   66.4874 C.3     1  ZINC000599797189    0.1100
     17 H17        -9.4103    0.1082   67.0430 H       1  ZINC000599797189    0.1200
     18 O18        -7.6711   -0.7192   66.2951 O.3     1  ZINC000599797189   -0.5400
     19 C19        -7.7722    1.4880   67.2742 C.3     1  ZINC000599797189   -0.1500
     20 C20        -6.2890    1.3170   67.0695 C.2     1  ZINC000599797189    0.4600
     21 O21        -5.5851    0.9898   67.9954 O.2     1  ZINC000599797189   -0.4900
     22 O22        -5.7500    1.5281   65.8585 O.3     1  ZINC000599797189   -0.3600
     23 C23        -4.3150    1.3436   65.7344 C.3     1  ZINC000599797189    0.0400
     24 N24        -9.5902   -2.0858   60.3614 N.2     1  ZINC000599797189   -0.3200
     25 H25       -16.2956   -2.3845   60.3172 H       1  ZINC000599797189    0.0800
     26 H26       -15.0929   -3.6743   60.5587 H       1  ZINC000599797189    0.0700
     27 H27       -14.8470   -2.0771   61.3048 H       1  ZINC000599797189    0.0700
     28 H28       -14.8679   -2.6578   58.3082 H       1  ZINC000599797189    0.0700
     29 H29       -14.6220   -1.0605   59.0544 H       1  ZINC000599797189    0.0700
     30 H30       -10.7877   -3.8420   58.7337 H       1  ZINC000599797189    0.1500
     31 H31       -10.4600   -2.8800   57.2724 H       1  ZINC000599797189    0.1300
     32 H32       -10.1567   -0.1126   57.8392 H       1  ZINC000599797189    0.2300
     33 H33        -7.4557   -1.0812   62.0515 H       1  ZINC000599797189    0.4200
     34 H34        -7.4008   -0.1510   64.1918 H       1  ZINC000599797189    0.4000
     35 H35        -8.6360    2.0170   65.0551 H       1  ZINC000599797189    0.0800
     36 H36       -10.0232    0.9023   65.0212 H       1  ZINC000599797189    0.0800
     37 H37        -6.9444   -0.5636   65.6764 H       1  ZINC000599797189    0.3800
     38 H38        -8.0762    2.4739   66.9226 H       1  ZINC000599797189    0.1200
     39 H39        -8.0059    1.3924   68.3346 H       1  ZINC000599797189    0.1200
     40 H40        -3.8009    2.0297   66.4075 H       1  ZINC000599797189    0.0600
     41 H41        -4.0568    0.3171   65.9951 H       1  ZINC000599797189    0.0600
     42 H42        -4.0102    1.5453   64.7075 H       1  ZINC000599797189    0.1000
@<TRIPOS>BOND
     1     1     2    1
     2     1    25    1
     3     1    26    1
     4     1    27    1
     5     2     3    1
     6     2    28    1
     7     2    29    1
     8     3     4    1
     9     4     5    2
    10     4     6    1
    11     6     7    1
    12     6    30    1
    13     6    31    1
    14     7    24    1
    15     7     8    1
    16     8     9    2
    17     8    32    1
    18     9    10    1
    19    10    11    1
    20    10    24    2
    21    11    12   am
    22    11    33    1
    23    12    13    2
    24    12    14   am
    25    14    15    1
    26    14    34    1
    27    15    16    1
    28    15    35    1
    29    15    36    1
    30    16    17    1
    31    16    18    1
    32    16    19    1
    33    18    37    1
    34    19    20    1
    35    19    38    1
    36    19    39    1
    37    20    21    2
    38    20    22    1
    39    22    23    1
    40    23    40    1
    41    23    41    1
    42    23    42    1
@<TRIPOS>SUBSTRUCTURE
     1 ZINC000599797189        1 TEMP              0 ****  ****    0 ROOT


##########                                Name:    ZINC000269356812
##########                DOCK_Rotatable_Bonds:                  10
##########                         Heavy_Atoms:                  25
##########                    Molecular_Weight:             387.431
##########                DOCK_Rotatable_Bonds:                  10
##########                       Formal_Charge:          0.00999978
##########                     HBond_Acceptors:                  10
##########                        HBond_Donors:                   3
##########                         Heavy_Atoms:                  25
##########                          Grid_Score:          -37.517933
##########                     Grid_vdw_energy:          -30.444225
##########                      Grid_es_energy:           -7.073708
##########           Internal_energy_repulsive:            9.580956

@<TRIPOS>MOLECULE
ZINC000269356812
 40 41 1 0 0
SMALL
USER_CHARGES


@<TRIPOS>ATOM
      1 C1         -3.0439    2.4032   67.4188 C.3     1  ZINC000269356812   -0.1400
      2 C2         -3.9823    1.9814   66.2863 C.3     1  ZINC000269356812    0.2000
      3 O3         -3.9692    0.5579   66.1621 O.3     1  ZINC000269356812   -0.5400
      4 C4         -5.4038    2.4529   66.5995 C.3     1  ZINC000269356812    0.0900
      5 N5         -6.3406    1.8416   65.6536 N.am    1  ZINC000269356812   -0.6900
      6 C6         -7.0840    0.7825   66.0307 C.2     1  ZINC000269356812    0.5100
      7 O7         -6.9761    0.3343   67.1534 O.2     1  ZINC000269356812   -0.5100
      8 C8         -8.0402    0.1605   65.0671 C.2     1  ZINC000269356812    0.5100
      9 O9         -8.6325   -0.8550   65.3699 O.2     1  ZINC000269356812   -0.4900
     10 N10        -8.2455    0.7263   63.8613 N.am    1  ZINC000269356812   -0.6400
     11 C11        -9.1415    0.1435   62.9584 C.ar    1  ZINC000269356812    0.0900
     12 C12        -8.6972   -0.8011   62.0335 C.ar    1  ZINC000269356812   -0.0600
     13 C13        -9.6171   -1.3515   61.1608 C.ar    1  ZINC000269356812   -0.1200
     14 C14       -10.9469   -0.9477   61.2332 C.ar    1  ZINC000269356812    0.1000
     15 S15       -12.1296   -1.6419   60.1270 S.3     1  ZINC000269356812   -0.0600
     16 C16       -11.1317   -2.0559   58.6699 C.3     1  ZINC000269356812    0.2900
     17 F17       -10.6054   -3.3439   58.8158 F       1  ZINC000269356812   -0.1700
     18 F18       -11.9349   -2.0072   57.5254 F       1  ZINC000269356812   -0.1700
     19 N19       -11.3335   -0.0477   62.1248 N.ar    1  ZINC000269356812   -0.4600
     20 C20       -10.4839    0.4938   62.9761 C.ar    1  ZINC000269356812    0.1100
     21 C21        -3.5203    2.6028   64.9935 C.2     1  ZINC000269356812   -0.2300
     22 C22        -2.7708    1.9947   64.0727 C.2     1  ZINC000269356812   -0.1100
     23 C23        -2.4700    2.7658   62.9632 C.2     1  ZINC000269356812   -0.1400
     24 C24        -2.9755    4.0001   62.9829 C.2     1  ZINC000269356812   -0.2000
     25 S25        -3.8933    4.2381   64.4643 S.3     1  ZINC000269356812    0.1100
     26 H26        -2.0312    2.0672   67.1957 H       1  ZINC000269356812    0.0800
     27 H27        -3.0539    3.4890   67.5135 H       1  ZINC000269356812    0.0800
     28 H28        -3.3780    1.9537   68.3540 H       1  ZINC000269356812    0.0700
     29 H29        -4.5817    0.2154   65.4969 H       1  ZINC000269356812    0.3800
     30 H30        -5.6687    2.1585   67.6151 H       1  ZINC000269356812    0.0900
     31 H31        -5.4543    3.5381   66.5110 H       1  ZINC000269356812    0.0900
     32 H32        -6.4259    2.1990   64.7559 H       1  ZINC000269356812    0.4200
     33 H33        -7.7721    1.5377   63.6194 H       1  ZINC000269356812    0.4300
     34 H34        -7.6587   -1.0955   61.9997 H       1  ZINC000269356812    0.1600
     35 H35        -9.3076   -2.0855   60.4314 H       1  ZINC000269356812    0.1500
     36 H36       -10.3163   -1.3391   58.5723 H       1  ZINC000269356812    0.1500
     37 H37       -10.8355    1.2248   63.6893 H       1  ZINC000269356812    0.1700
     38 H38        -2.4243    0.9779   64.1846 H       1  ZINC000269356812    0.1500
     39 H39        -1.8713    2.3962   62.1439 H       1  ZINC000269356812    0.1400
     40 H40        -2.8442    4.7390   62.2062 H       1  ZINC000269356812    0.1700
@<TRIPOS>BOND
     1     1     2    1
     2     1    26    1
     3     1    27    1
     4     1    28    1
     5     2     3    1
     6     2     4    1
     7     2    21    1
     8     3    29    1
     9     4     5    1
    10     4    30    1
    11     4    31    1
    12     5     6   am
    13     5    32    1
    14     6     7    2
    15     6     8    1
    16     8     9    2
    17     8    10   am
    18    10    11    1
    19    10    33    1
    20    11    20   ar
    21    11    12   ar
    22    12    13   ar
    23    12    34    1
    24    13    14   ar
    25    13    35    1
    26    14    15    1
    27    14    19   ar
    28    15    16    1
    29    16    17    1
    30    16    18    1
    31    16    36    1
    32    19    20   ar
    33    20    37    1
    34    21    25    1
    35    21    22    2
    36    22    23    1
    37    22    38    1
    38    23    24    2
    39    23    39    1
    40    24    25    1
    41    24    40    1
@<TRIPOS>SUBSTRUCTURE
     1 ZINC000269356812        1 TEMP              0 ****  ****    0 ROOT


##########                                Name:    ZINC000824084043
##########                DOCK_Rotatable_Bonds:                  11
##########                         Heavy_Atoms:                  27
##########                    Molecular_Weight:             382.547
##########                DOCK_Rotatable_Bonds:                  11
##########                       Formal_Charge:        -6.85453e-07
##########                     HBond_Acceptors:                   7
##########                        HBond_Donors:                   3
##########                         Heavy_Atoms:                  27
##########                          Grid_Score:          -37.466629
##########                     Grid_vdw_energy:          -34.512806
##########                      Grid_es_energy:           -2.953824
##########           Internal_energy_repulsive:           20.153311

@<TRIPOS>MOLECULE
ZINC000824084043
 65 66 1 0 0
SMALL
USER_CHARGES


@<TRIPOS>ATOM
      1 C1        -15.4561   -2.4036   56.1931 C.3     1  ZINC000824084043   -0.1400
      2 C2        -14.6290   -1.8774   57.3679 C.3     1  ZINC000824084043   -0.1000
      3 C3        -15.0532   -2.5937   58.6515 C.3     1  ZINC000824084043   -0.1300
      4 C4        -13.1448   -2.1390   57.1043 C.3     1  ZINC000824084043    0.1700
      5 H5        -13.0294   -3.0954   56.5944 H       1  ZINC000824084043    0.0700
      6 C6        -12.5779   -1.0214   56.2266 C.3     1  ZINC000824084043   -0.1400
      7 C7        -11.3307   -1.5274   55.4989 C.3     1  ZINC000824084043    0.1300
      8 N8        -11.6122   -1.6358   54.0652 N.am    1  ZINC000824084043   -0.6200
      9 C9        -12.6673   -2.5353   53.5918 C.3     1  ZINC000824084043    0.0800
     10 C10       -10.9006   -0.9081   53.1819 C.2     1  ZINC000824084043    0.7000
     11 O11       -11.1332   -0.9989   51.9919 O.2     1  ZINC000824084043   -0.5800
     12 N12        -9.9311   -0.0793   53.6176 N.am    1  ZINC000824084043   -0.7500
     13 C13        -9.1563    0.7105   52.6574 C.3     1  ZINC000824084043    0.1600
     14 C14        -8.5523    1.9273   53.3644 C.3     1  ZINC000824084043   -0.1600
     15 C15        -7.6801    2.7039   52.3756 C.3     1  ZINC000824084043   -0.0100
     16 N16        -6.6026    1.8376   51.8828 N.4     1  ZINC000824084043   -0.3800
     17 H17        -6.0671    1.4908   52.6645 H       1  ZINC000824084043    0.4200
     18 C18        -5.7241    2.6091   50.9933 C.3     1  ZINC000824084043    0.0000
     19 C19        -4.2630    2.2976   51.3238 C.3     1  ZINC000824084043   -0.1200
     20 C20        -3.3438    2.6927   50.1415 C.3     1  ZINC000824084043   -0.1400
     21 C21        -1.9707    2.8950   50.8291 C.3     1  ZINC000824084043   -0.1200
     22 C22        -2.3171    3.5571   52.1787 C.3     1  ZINC000824084043   -0.1300
     23 C23        -3.7747    3.1772   52.4932 C.3     1  ZINC000824084043   -0.1100
     24 C24        -7.1727    0.7061   51.1417 C.3     1  ZINC000824084043    0.0000
     25 C25        -8.0253   -0.1474   52.0830 C.3     1  ZINC000824084043   -0.1600
     26 N26       -12.4215   -2.1743   58.3779 N.am    1  ZINC000824084043   -0.7800
     27 C27       -11.5068   -3.1373   58.6070 C.2     1  ZINC000824084043    0.6600
     28 O28       -10.9020   -3.1658   59.6696 O.co2   1  ZINC000824084043   -0.7200
     29 O29       -11.2817   -3.9826   57.7521 O.co2   1  ZINC000824084043   -0.7300
     30 H30       -16.5135   -2.2172   56.3809 H       1  ZINC000824084043    0.0500
     31 H31       -15.1539   -1.8933   55.2786 H       1  ZINC000824084043    0.0500
     32 H32       -15.2900   -3.4752   56.0831 H       1  ZINC000824084043    0.0500
     33 H33       -14.7951   -0.8057   57.4779 H       1  ZINC000824084043    0.0500
     34 H34       -14.8871   -3.6653   58.5415 H       1  ZINC000824084043    0.0600
     35 H35       -14.4640   -2.2187   59.4885 H       1  ZINC000824084043    0.0700
     36 H36       -16.1105   -2.4073   58.8393 H       1  ZINC000824084043    0.0300
     37 H37       -13.3272   -0.7181   55.4955 H       1  ZINC000824084043    0.0700
     38 H38       -12.3131   -0.1681   56.8509 H       1  ZINC000824084043    0.0600
     39 H39       -10.5096   -0.8282   55.6560 H       1  ZINC000824084043    0.0900
     40 H40       -11.0542   -2.5066   55.8898 H       1  ZINC000824084043    0.0900
     41 H41       -13.6136   -1.9958   53.5513 H       1  ZINC000824084043    0.0600
     42 H42       -12.4142   -2.9002   52.5965 H       1  ZINC000824084043    0.0600
     43 H43       -12.7592   -3.3791   54.2757 H       1  ZINC000824084043    0.0800
     44 H44        -9.7464   -0.0059   54.5671 H       1  ZINC000824084043    0.4000
     45 H45        -9.8078    1.0432   51.8493 H       1  ZINC000824084043    0.1100
     46 H46        -9.3528    2.5716   53.7277 H       1  ZINC000824084043    0.1200
     47 H47        -7.9424    1.5945   54.2042 H       1  ZINC000824084043    0.0900
     48 H48        -8.2910    3.0363   51.5363 H       1  ZINC000824084043    0.1300
     49 H49        -7.2486    3.5710   52.8757 H       1  ZINC000824084043    0.1300
     50 H50        -5.9280    2.3386   49.9573 H       1  ZINC000824084043    0.1300
     51 H51        -5.9093    3.6740   51.1339 H       1  ZINC000824084043    0.1300
     52 H52        -4.1444    1.2413   51.5654 H       1  ZINC000824084043    0.1000
     53 H53        -3.2931    1.8896   49.4063 H       1  ZINC000824084043    0.0700
     54 H54        -3.6848    3.6195   49.6800 H       1  ZINC000824084043    0.0800
     55 H55        -1.4795    1.9353   50.9899 H       1  ZINC000824084043    0.0700
     56 H56        -1.3385    3.5528   50.2326 H       1  ZINC000824084043    0.0800
     57 H57        -1.6563    3.1808   52.9596 H       1  ZINC000824084043    0.0700
     58 H58        -2.2224    4.6399   52.0985 H       1  ZINC000824084043    0.0700
     59 H59        -4.3874    4.0757   52.5657 H       1  ZINC000824084043    0.0700
     60 H60        -3.8213    2.6166   53.4268 H       1  ZINC000824084043    0.0800
     61 H61        -7.7943    1.0811   50.3287 H       1  ZINC000824084043    0.1300
     62 H62        -6.3665    0.0983   50.7308 H       1  ZINC000824084043    0.1300
     63 H63        -7.4045   -0.5232   52.8962 H       1  ZINC000824084043    0.0900
     64 H64        -8.4491   -0.9859   51.5304 H       1  ZINC000824084043    0.1200
     65 H65       -12.6011   -1.5046   59.0563 H       1  ZINC000824084043    0.3600
@<TRIPOS>BOND
     1     1     2    1
     2     1    30    1
     3     1    31    1
     4     1    32    1
     5     2     3    1
     6     2     4    1
     7     2    33    1
     8     3    34    1
     9     3    35    1
    10     3    36    1
    11     4     5    1
    12     4     6    1
    13     4    26    1
    14     6     7    1
    15     6    37    1
    16     6    38    1
    17     7     8    1
    18     7    39    1
    19     7    40    1
    20     8     9    1
    21     8    10   am
    22     9    41    1
    23     9    42    1
    24     9    43    1
    25    10    11    2
    26    10    12   am
    27    12    13    1
    28    12    44    1
    29    13    25    1
    30    13    14    1
    31    13    45    1
    32    14    15    1
    33    14    46    1
    34    14    47    1
    35    15    16    1
    36    15    48    1
    37    15    49    1
    38    16    17    1
    39    16    18    1
    40    16    24    1
    41    18    19    1
    42    18    50    1
    43    18    51    1
    44    19    23    1
    45    19    20    1
    46    19    52    1
    47    20    21    1
    48    20    53    1
    49    20    54    1
    50    21    22    1
    51    21    55    1
    52    21    56    1
    53    22    23    1
    54    22    57    1
    55    22    58    1
    56    23    59    1
    57    23    60    1
    58    24    25    1
    59    24    61    1
    60    24    62    1
    61    25    63    1
    62    25    64    1
    63    26    27   am
    64    26    65    1
    65    27    28   ar
    66    27    29   ar
@<TRIPOS>SUBSTRUCTURE
     1 ZINC000824084043        1 TEMP              0 ****  ****    0 ROOT


##########                                Name:    ZINC000603906271
##########                DOCK_Rotatable_Bonds:                   8
##########                         Heavy_Atoms:                  29
##########                    Molecular_Weight:             391.473
##########                DOCK_Rotatable_Bonds:                   8
##########                       Formal_Charge:           0.0499998
##########                     HBond_Acceptors:                   7
##########                        HBond_Donors:                   3
##########                         Heavy_Atoms:                  29
##########                          Grid_Score:          -37.435184
##########                     Grid_vdw_energy:          -35.454765
##########                      Grid_es_energy:           -1.980420
##########           Internal_energy_repulsive:           17.784647

@<TRIPOS>MOLECULE
ZINC000603906271
 54 56 1 0 0
SMALL
USER_CHARGES


@<TRIPOS>ATOM
      1 C1        -13.5031   -0.3925   51.7468 C.3     1  ZINC000603906271   -0.1600
      2 C2        -12.2585   -0.9018   52.4766 C.3     1  ZINC000603906271    0.1300
      3 H3        -11.9985   -1.8925   52.1035 H       1  ZINC000603906271    0.1200
      4 N4        -11.1428    0.0176   52.2392 N.am    1  ZINC000603906271   -0.7100
      5 C5         -9.8771   -0.4454   52.2359 C.2     1  ZINC000603906271    0.5700
      6 O6         -9.6611   -1.6255   52.4313 O.2     1  ZINC000603906271   -0.5300
      7 C7         -8.7513    0.4821   51.9946 C.ar    1  ZINC000603906271   -0.1400
      8 C8         -8.9871    1.8516   51.8645 C.ar    1  ZINC000603906271   -0.0800
      9 C9         -7.9322    2.7118   51.6399 C.ar    1  ZINC000603906271   -0.1200
     10 C10        -6.6427    2.2195   51.5432 C.ar    1  ZINC000603906271   -0.0400
     11 C11        -5.4953    3.1649   51.2972 C.3     1  ZINC000603906271   -0.0400
     12 C12        -6.0121    4.6050   51.2966 C.3     1  ZINC000603906271   -0.1400
     13 C13        -4.4512    2.9983   52.4032 C.3     1  ZINC000603906271   -0.1500
     14 C14        -4.8575    2.8515   49.9423 C.3     1  ZINC000603906271   -0.1400
     15 C15        -6.4021    0.8630   51.6716 C.ar    1  ZINC000603906271   -0.1300
     16 C16        -7.4475   -0.0072   51.9017 C.ar    1  ZINC000603906271   -0.0500
     17 C17       -12.5397   -0.9796   53.9550 C.2     1  ZINC000603906271    0.5100
     18 O18       -12.6617    0.0382   54.6035 O.2     1  ZINC000603906271   -0.5100
     19 N19       -12.6554   -2.1799   54.5568 N.am    1  ZINC000603906271   -0.6700
     20 C20       -12.9165   -2.2520   55.9297 C.ar    1  ZINC000603906271    0.1300
     21 C21       -14.2107   -2.4815   56.3797 C.ar    1  ZINC000603906271   -0.1200
     22 C22       -14.4724   -2.5534   57.7350 C.ar    1  ZINC000603906271   -0.1000
     23 C23       -13.4497   -2.3972   58.6488 C.ar    1  ZINC000603906271   -0.0900
     24 C24       -12.1483   -2.1661   58.2062 C.ar    1  ZINC000603906271    0.0000
     25 C25       -11.0477   -1.9975   59.1875 C.2     1  ZINC000603906271    0.2700
     26 N26       -11.1843   -1.5886   60.4298 N.2     1  ZINC000603906271   -0.3000
     27 N27        -9.8985   -1.5749   60.9942 N.pl3   1  ZINC000603906271   -0.4800
     28 C28        -9.0538   -1.9861   60.0313 C.2     1  ZINC000603906271    0.2700
     29 N29        -9.7509   -2.2420   58.9560 N.2     1  ZINC000603906271   -0.5300
     30 C30       -11.8825   -2.1002   56.8415 C.ar    1  ZINC000603906271   -0.0800
     31 H31       -13.7631    0.5981   52.1198 H       1  ZINC000603906271    0.0700
     32 H32       -13.2997   -0.3363   50.6774 H       1  ZINC000603906271    0.0800
     33 H33       -14.3331   -1.0766   51.9234 H       1  ZINC000603906271    0.0700
     34 H34       -11.3152    0.9596   52.0845 H       1  ZINC000603906271    0.4100
     35 H35        -9.9932    2.2372   51.9392 H       1  ZINC000603906271    0.1300
     36 H36        -8.1132    3.7718   51.5391 H       1  ZINC000603906271    0.1300
     37 H37        -6.4665    4.8283   52.2619 H       1  ZINC000603906271    0.0600
     38 H38        -5.1822    5.2889   51.1188 H       1  ZINC000603906271    0.0600
     39 H39        -6.7559    4.7237   50.5087 H       1  ZINC000603906271    0.0600
     40 H40        -4.0829    1.9724   52.4036 H       1  ZINC000603906271    0.0600
     41 H41        -3.6212    3.6822   52.2253 H       1  ZINC000603906271    0.0600
     42 H42        -4.9055    3.2217   53.3684 H       1  ZINC000603906271    0.0600
     43 H43        -5.6013    2.9701   49.1545 H       1  ZINC000603906271    0.0600
     44 H44        -4.0276    3.5352   49.7645 H       1  ZINC000603906271    0.0600
     45 H45        -4.4892    1.8255   49.9427 H       1  ZINC000603906271    0.0600
     46 H46        -5.3932    0.4852   51.5954 H       1  ZINC000603906271    0.1400
     47 H47        -7.2583   -1.0658   52.0022 H       1  ZINC000603906271    0.1400
     48 H48       -12.5579   -2.9938   54.0382 H       1  ZINC000603906271    0.4200
     49 H49       -15.0144   -2.6037   55.6687 H       1  ZINC000603906271    0.1300
     50 H50       -15.4802   -2.7320   58.0800 H       1  ZINC000603906271    0.1400
     51 H51       -13.6579   -2.4536   59.7071 H       1  ZINC000603906271    0.1400
     52 H52        -9.6653   -1.3189   61.9002 H       1  ZINC000603906271    0.4400
     53 H53        -7.9836   -2.0912   60.1313 H       1  ZINC000603906271    0.2300
     54 H54       -10.8759   -1.9215   56.4937 H       1  ZINC000603906271    0.1500
@<TRIPOS>BOND
     1     1     2    1
     2     1    31    1
     3     1    32    1
     4     1    33    1
     5     2     3    1
     6     2     4    1
     7     2    17    1
     8     4     5   am
     9     4    34    1
    10     5     6    2
    11     5     7    1
    12     7    16   ar
    13     7     8   ar
    14     8     9   ar
    15     8    35    1
    16     9    10   ar
    17     9    36    1
    18    10    11    1
    19    10    15   ar
    20    11    12    1
    21    11    13    1
    22    11    14    1
    23    12    37    1
    24    12    38    1
    25    12    39    1
    26    13    40    1
    27    13    41    1
    28    13    42    1
    29    14    43    1
    30    14    44    1
    31    14    45    1
    32    15    16   ar
    33    15    46    1
    34    16    47    1
    35    17    18    2
    36    17    19   am
    37    19    20    1
    38    19    48    1
    39    20    30   ar
    40    20    21   ar
    41    21    22   ar
    42    21    49    1
    43    22    23   ar
    44    22    50    1
    45    23    24   ar
    46    23    51    1
    47    24    25    1
    48    24    30   ar
    49    25    29    1
    50    25    26    2
    51    26    27    1
    52    27    28    1
    53    27    52    1
    54    28    29    2
    55    28    53    1
    56    30    54    1
@<TRIPOS>SUBSTRUCTURE
     1 ZINC000603906271        1 TEMP              0 ****  ****    0 ROOT


##########                                Name:    ZINC000805177769
##########                DOCK_Rotatable_Bonds:                  10
##########                         Heavy_Atoms:                  30
##########                    Molecular_Weight:             417.548
##########                DOCK_Rotatable_Bonds:                  10
##########                       Formal_Charge:           0.0199995
##########                     HBond_Acceptors:                   7
##########                        HBond_Donors:                   1
##########                         Heavy_Atoms:                  30
##########                          Grid_Score:          -37.340836
##########                     Grid_vdw_energy:          -36.537708
##########                      Grid_es_energy:           -0.803129
##########           Internal_energy_repulsive:           51.386215

@<TRIPOS>MOLECULE
ZINC000805177769
 65 66 1 0 0
SMALL
USER_CHARGES


@<TRIPOS>ATOM
      1 C1         -9.9576    0.1672   52.9145 C.3     1  ZINC000805177769   -0.1200
      2 C2         -8.7689    0.7922   52.2307 C.ar    1  ZINC000805177769   -0.0800
      3 C3         -7.5749    0.1006   52.1513 C.ar    1  ZINC000805177769   -0.1200
      4 C4         -6.4843    0.6741   51.5240 C.ar    1  ZINC000805177769   -0.1100
      5 C5         -6.5882    1.9387   50.9762 C.ar    1  ZINC000805177769   -0.0900
      6 C6         -5.3994    2.5639   50.2930 C.3     1  ZINC000805177769   -0.0900
      7 C7         -4.6271    3.4219   51.2972 C.3     1  ZINC000805177769    0.1500
      8 H8         -4.9730    4.4537   51.2352 H       1  ZINC000805177769    0.1000
      9 C9         -3.1328    3.3648   50.9738 C.3     1  ZINC000805177769   -0.1700
     10 N10        -4.8535    2.9115   52.6515 N.am    1  ZINC000805177769   -0.6900
     11 C11        -4.5609    3.6803   53.7192 C.2     1  ZINC000805177769    0.5100
     12 O12        -4.1084    4.7947   53.5585 O.2     1  ZINC000805177769   -0.5100
     13 C13        -4.7936    3.1602   55.1007 C.2     1  ZINC000805177769    0.5200
     14 O14        -3.8602    2.7550   55.7618 O.2     1  ZINC000805177769   -0.5200
     15 N15        -6.0403    3.1412   55.6125 N.am    1  ZINC000805177769   -0.5900
     16 C16        -7.2560    3.5995   54.9245 C.3     1  ZINC000805177769    0.1100
     17 C17        -8.4421    3.3616   55.8826 C.3     1  ZINC000805177769   -0.1500
     18 C18        -7.9039    2.2615   56.8353 C.3     1  ZINC000805177769    0.1500
     19 H19        -8.0119    1.2723   56.3904 H       1  ZINC000805177769    0.1200
     20 N20        -8.5702    2.3237   58.1386 N.am    1  ZINC000805177769   -0.5900
     21 C21        -8.7477    3.6137   58.8098 C.3     1  ZINC000805177769    0.0800
     22 C22        -9.0196    1.1940   58.7202 C.2     1  ZINC000805177769    0.6600
     23 O23        -8.8737    0.1241   58.1629 O.2     1  ZINC000805177769   -0.5600
     24 O24        -9.6305    1.2509   59.9187 O.3     1  ZINC000805177769   -0.3600
     25 C25       -10.1607    0.0071   60.4481 C.3     1  ZINC000805177769    0.1400
     26 C26        -9.0193   -0.9940   60.6382 C.3     1  ZINC000805177769   -0.1800
     27 C27       -10.8356    0.2728   61.7952 C.3     1  ZINC000805177769   -0.1400
     28 C28       -11.1857   -0.5681   59.4686 C.3     1  ZINC000805177769   -0.1800
     29 C29        -6.4116    2.6516   56.9526 C.3     1  ZINC000805177769    0.0900
     30 C30        -7.7830    2.6300   51.0545 C.ar    1  ZINC000805177769   -0.0800
     31 C31        -7.8965    4.0087   50.4568 C.3     1  ZINC000805177769   -0.1200
     32 C32        -8.8744    2.0552   51.6782 C.ar    1  ZINC000805177769   -0.1200
     33 H33       -10.5393   -0.3987   52.1867 H       1  ZINC000805177769    0.0700
     34 H34        -9.6130   -0.5017   53.7031 H       1  ZINC000805177769    0.0700
     35 H35       -10.5804    0.9497   53.3479 H       1  ZINC000805177769    0.0700
     36 H36        -7.4937   -0.8876   52.5793 H       1  ZINC000805177769    0.1200
     37 H37        -5.5511    0.1339   51.4625 H       1  ZINC000805177769    0.1200
     38 H38        -4.7475    1.7797   49.9082 H       1  ZINC000805177769    0.0800
     39 H39        -5.7416    3.1892   49.4683 H       1  ZINC000805177769    0.0900
     40 H40        -2.7869    2.3330   51.0357 H       1  ZINC000805177769    0.0600
     41 H41        -2.9643    3.7446   49.9661 H       1  ZINC000805177769    0.0700
     42 H42        -2.5825    3.9761   51.6891 H       1  ZINC000805177769    0.0600
     43 H43        -5.2141    2.0202   52.7800 H       1  ZINC000805177769    0.4100
     44 H44        -7.1734    4.6616   54.6936 H       1  ZINC000805177769    0.0900
     45 H45        -7.4003    3.0288   54.0071 H       1  ZINC000805177769    0.0900
     46 H46        -8.6784    4.2699   56.4369 H       1  ZINC000805177769    0.0900
     47 H47        -9.3145    3.0046   55.3353 H       1  ZINC000805177769    0.0900
     48 H48        -9.6983    4.0529   58.5072 H       1  ZINC000805177769    0.0600
     49 H49        -8.7436    3.4651   59.8895 H       1  ZINC000805177769    0.0800
     50 H50        -7.9335    4.2830   58.5319 H       1  ZINC000805177769    0.0800
     51 H51        -8.2890   -0.5842   61.3359 H       1  ZINC000805177769    0.0600
     52 H52        -9.4173   -1.9276   61.0355 H       1  ZINC000805177769    0.0700
     53 H53        -8.5384   -1.1832   59.6784 H       1  ZINC000805177769    0.0900
     54 H54       -11.6488    0.9859   61.6598 H       1  ZINC000805177769    0.0700
     55 H55       -11.2336   -0.6609   62.1925 H       1  ZINC000805177769    0.0800
     56 H56       -10.1053    0.6826   62.4929 H       1  ZINC000805177769    0.0700
     57 H57       -10.7049   -0.7575   58.5090 H       1  ZINC000805177769    0.0900
     58 H58       -11.5838   -1.5018   59.8661 H       1  ZINC000805177769    0.0700
     59 H59       -11.9989    0.1450   59.3333 H       1  ZINC000805177769    0.0600
     60 H60        -5.8123    1.7820   57.2220 H       1  ZINC000805177769    0.0900
     61 H61        -6.2835    3.4447   57.6893 H       1  ZINC000805177769    0.0800
     62 H62        -8.2207    3.9292   49.4192 H       1  ZINC000805177769    0.0700
     63 H63        -8.6248    4.5907   51.0215 H       1  ZINC000805177769    0.0700
     64 H64        -6.9261    4.5033   50.4973 H       1  ZINC000805177769    0.0700
     65 H65        -9.8077    2.5951   51.7394 H       1  ZINC000805177769    0.1200
@<TRIPOS>BOND
     1     1     2    1
     2     1    33    1
     3     1    34    1
     4     1    35    1
     5     2    32   ar
     6     2     3   ar
     7     3     4   ar
     8     3    36    1
     9     4     5   ar
    10     4    37    1
    11     5     6    1
    12     5    30   ar
    13     6     7    1
    14     6    38    1
    15     6    39    1
    16     7     8    1
    17     7     9    1
    18     7    10    1
    19     9    40    1
    20     9    41    1
    21     9    42    1
    22    10    11   am
    23    10    43    1
    24    11    12    2
    25    11    13    1
    26    13    14    2
    27    13    15   am
    28    15    29    1
    29    15    16    1
    30    16    17    1
    31    16    44    1
    32    16    45    1
    33    17    18    1
    34    17    46    1
    35    17    47    1
    36    18    19    1
    37    18    20    1
    38    18    29    1
    39    20    21    1
    40    20    22   am
    41    21    48    1
    42    21    49    1
    43    21    50    1
    44    22    23    2
    45    22    24    1
    46    24    25    1
    47    25    26    1
    48    25    27    1
    49    25    28    1
    50    26    51    1
    51    26    52    1
    52    26    53    1
    53    27    54    1
    54    27    55    1
    55    27    56    1
    56    28    57    1
    57    28    58    1
    58    28    59    1
    59    29    60    1
    60    29    61    1
    61    30    31    1
    62    30    32   ar
    63    31    62    1
    64    31    63    1
    65    31    64    1
    66    32    65    1
@<TRIPOS>SUBSTRUCTURE
     1 ZINC000805177769        1 TEMP              0 ****  ****    0 ROOT


##########                                Name:    ZINC000552360217
##########                DOCK_Rotatable_Bonds:                  13
##########                         Heavy_Atoms:                  27
##########                    Molecular_Weight:             401.484
##########                DOCK_Rotatable_Bonds:                  13
##########                       Formal_Charge:          -0.0100002
##########                     HBond_Acceptors:                  10
##########                        HBond_Donors:                   3
##########                         Heavy_Atoms:                  27
##########                          Grid_Score:          -37.194687
##########                     Grid_vdw_energy:          -33.124321
##########                      Grid_es_energy:           -4.070366
##########           Internal_energy_repulsive:           21.096535

@<TRIPOS>MOLECULE
ZINC000552360217
 54 54 1 0 0
SMALL
USER_CHARGES


@<TRIPOS>ATOM
      1 C1         -9.4331    2.1045   60.2681 C.3     1  ZINC000552360217    0.0800
      2 N2         -9.5127    0.6480   60.4047 N.am    1  ZINC000552360217   -1.0000
      3 C3         -8.5637   -0.2078   59.6883 C.3     1  ZINC000552360217    0.0900
      4 S4        -10.6752   -0.0310   61.3690 S.o2    1  ZINC000552360217    2.7000
      5 O5        -11.9189    0.4999   60.9325 O.2     1  ZINC000552360217   -0.9500
      6 O6        -10.3970   -1.4238   61.4127 O.2     1  ZINC000552360217   -0.9500
      7 C7        -10.4196    0.5790   63.0021 C.ar    1  ZINC000552360217   -0.6900
      8 C8        -11.2134    1.6020   63.4889 C.ar    1  ZINC000552360217    0.0100
      9 C9        -11.0195    2.0865   64.7706 C.ar    1  ZINC000552360217   -0.1400
     10 C10       -10.0321    1.5515   65.5714 C.ar    1  ZINC000552360217   -0.0300
     11 C11        -9.2275    0.5190   65.0863 C.ar    1  ZINC000552360217   -0.1600
     12 C12        -8.1675   -0.0595   65.9393 C.2     1  ZINC000552360217    0.5600
     13 O13        -8.1915   -1.2418   66.2208 O.2     1  ZINC000552360217   -0.5300
     14 N14        -7.1747    0.7240   66.4049 N.am    1  ZINC000552360217   -0.7100
     15 C15        -6.1233    0.1504   67.2487 C.3     1  ZINC000552360217    0.1000
     16 C16        -4.9298    1.0705   67.2592 C.2     1  ZINC000552360217    0.5100
     17 O17        -4.8374    1.9343   68.1055 O.2     1  ZINC000552360217   -0.5400
     18 N18        -3.9651    0.9336   66.3279 N.am    1  ZINC000552360217   -0.7200
     19 C19        -2.8041    1.8269   66.3391 C.3     1  ZINC000552360217    0.1400
     20 C20        -2.6343    2.4599   64.9567 C.3     1  ZINC000552360217    0.1000
     21 C21        -3.9535    3.1040   64.5253 C.3     1  ZINC000552360217   -0.1800
     22 C22        -1.5405    3.5280   65.0156 C.3     1  ZINC000552360217   -0.1800
     23 O23        -2.2656    1.4519   64.0132 O.3     1  ZINC000552360217   -0.3700
     24 C24        -1.9154    1.9617   62.7250 C.3     1  ZINC000552360217    0.0600
     25 C25        -0.3990    1.8796   62.5389 C.3     1  ZINC000552360217    0.0800
     26 O26        -0.0672    2.2001   61.1864 O.3     1  ZINC000552360217   -0.5700
     27 C27        -9.4317    0.0314   63.7947 C.ar    1  ZINC000552360217    0.0400
     28 H28       -10.0550    2.4255   59.4324 H       1  ZINC000552360217    0.0600
     29 H29        -9.7862    2.5753   61.1856 H       1  ZINC000552360217    0.0900
     30 H30        -8.3991    2.3962   60.0846 H       1  ZINC000552360217    0.0800
     31 H31        -7.8796    0.4131   59.1097 H       1  ZINC000552360217    0.0800
     32 H32        -7.9970   -0.8018   60.4053 H       1  ZINC000552360217    0.0700
     33 H33        -9.1083   -0.8714   59.0166 H       1  ZINC000552360217    0.0600
     34 H34       -11.9877    2.0247   62.8658 H       1  ZINC000552360217    0.1500
     35 H35       -11.6425    2.8856   65.1444 H       1  ZINC000552360217    0.1400
     36 H36        -9.8815    1.9308   66.5714 H       1  ZINC000552360217    0.1400
     37 H37        -7.1561    1.6677   66.1814 H       1  ZINC000552360217    0.4100
     38 H38        -6.4983    0.0303   68.2652 H       1  ZINC000552360217    0.1000
     39 H39        -5.8294   -0.8215   66.8525 H       1  ZINC000552360217    0.1000
     40 H40        -4.0397    0.2435   65.6503 H       1  ZINC000552360217    0.4100
     41 H41        -2.9557    2.6105   67.0815 H       1  ZINC000552360217    0.0800
     42 H42        -1.9095    1.2568   66.5901 H       1  ZINC000552360217    0.0900
     43 H43        -4.2347    3.8728   65.2449 H       1  ZINC000552360217    0.0700
     44 H44        -3.8326    3.5549   63.5404 H       1  ZINC000552360217    0.0700
     45 H45        -4.7328    2.3431   64.4833 H       1  ZINC000552360217    0.0700
     46 H46        -0.6008    3.0692   65.3229 H       1  ZINC000552360217    0.0600
     47 H47        -1.4196    3.9790   64.0306 H       1  ZINC000552360217    0.0700
     48 H48        -1.8219    4.2968   65.7352 H       1  ZINC000552360217    0.0700
     49 H49        -2.4087    1.3701   61.9537 H       1  ZINC000552360217    0.0600
     50 H50        -2.2353    3.0007   62.6462 H       1  ZINC000552360217    0.0700
     51 H51         0.0883    2.5868   63.2100 H       1  ZINC000552360217    0.0600
     52 H52        -0.0592    0.8692   62.7667 H       1  ZINC000552360217    0.0500
     53 H53        -0.4520    1.5989   60.5340 H       1  ZINC000552360217    0.3800
     54 H54        -8.8127   -0.7672   63.4136 H       1  ZINC000552360217    0.1500
@<TRIPOS>BOND
     1     1     2    1
     2     1    28    1
     3     1    29    1
     4     1    30    1
     5     2     3    1
     6     2     4   am
     7     3    31    1
     8     3    32    1
     9     3    33    1
    10     4     5    2
    11     4     6    2
    12     4     7    1
    13     7    27   ar
    14     7     8   ar
    15     8     9   ar
    16     8    34    1
    17     9    10   ar
    18     9    35    1
    19    10    11   ar
    20    10    36    1
    21    11    12    1
    22    11    27   ar
    23    12    13    2
    24    12    14   am
    25    14    15    1
    26    14    37    1
    27    15    16    1
    28    15    38    1
    29    15    39    1
    30    16    17    2
    31    16    18   am
    32    18    19    1
    33    18    40    1
    34    19    20    1
    35    19    41    1
    36    19    42    1
    37    20    21    1
    38    20    22    1
    39    20    23    1
    40    21    43    1
    41    21    44    1
    42    21    45    1
    43    22    46    1
    44    22    47    1
    45    22    48    1
    46    23    24    1
    47    24    25    1
    48    24    49    1
    49    24    50    1
    50    25    26    1
    51    25    51    1
    52    25    52    1
    53    26    53    1
    54    27    54    1
@<TRIPOS>SUBSTRUCTURE
     1 ZINC000552360217        1 TEMP              0 ****  ****    0 ROOT


##########                                Name:    ZINC000013809319
##########                DOCK_Rotatable_Bonds:                  10
##########                         Heavy_Atoms:                  30
##########                    Molecular_Weight:             407.469
##########                DOCK_Rotatable_Bonds:                  10
##########                       Formal_Charge:         -0.00999978
##########                     HBond_Acceptors:                   7
##########                        HBond_Donors:                   1
##########                         Heavy_Atoms:                  30
##########                          Grid_Score:          -37.152847
##########                     Grid_vdw_energy:          -36.478100
##########                      Grid_es_energy:           -0.674747
##########           Internal_energy_repulsive:           15.929108

@<TRIPOS>MOLECULE
ZINC000013809319
 55 57 1 0 0
SMALL
USER_CHARGES


@<TRIPOS>ATOM
      1 C1         -4.1731    4.6043   51.4914 C.3     1  ZINC000013809319   -0.1500
      2 C2         -3.7241    3.4987   50.5337 C.3     1  ZINC000013809319    0.0500
      3 O3         -4.8297    3.0904   49.7258 O.3     1  ZINC000013809319   -0.3100
      4 C4         -5.8472    2.4465   50.3534 C.ar    1  ZINC000013809319    0.1500
      5 C5         -7.1428    2.9388   50.2573 C.ar    1  ZINC000013809319   -0.2200
      6 C6         -8.1778    2.2877   50.8925 C.ar    1  ZINC000013809319   -0.0300
      7 C7         -7.9235    1.1322   51.6330 C.ar    1  ZINC000013809319   -0.1100
      8 C8         -9.0327    0.4298   52.3162 C.2     1  ZINC000013809319    0.2300
      9 C9         -9.5679    0.9428   53.4866 C.2     1  ZINC000013809319   -0.2900
     10 C10       -10.6207    0.2440   54.1024 C.2     1  ZINC000013809319    0.5300
     11 O11       -11.1231    0.6589   55.1342 O.2     1  ZINC000013809319   -0.5400
     12 N12       -11.0654   -0.8943   53.5301 N.am    1  ZINC000013809319   -0.5100
     13 C13       -12.1617   -1.6421   54.1506 C.3     1  ZINC000013809319    0.0700
     14 C14       -11.6046   -2.5796   55.1907 C.2     1  ZINC000013809319    0.5000
     15 O15       -10.8418   -3.4639   54.8637 O.2     1  ZINC000013809319   -0.5200
     16 N16       -11.9542   -2.4354   56.4843 N.am    1  ZINC000013809319   -0.7200
     17 C17       -11.4113   -3.3458   57.4957 C.3     1  ZINC000013809319    0.1300
     18 C18       -11.6057   -2.7376   58.8862 C.3     1  ZINC000013809319   -0.0800
     19 C19       -10.7073   -1.5374   59.0395 C.ar    1  ZINC000013809319   -0.1200
     20 C20        -9.3995   -1.7011   59.4525 C.ar    1  ZINC000013809319   -0.0800
     21 C21        -8.5749   -0.6000   59.5939 C.ar    1  ZINC000013809319   -0.1500
     22 C22        -9.0567    0.6668   59.3218 C.ar    1  ZINC000013809319   -0.0800
     23 C23       -10.3640    0.8360   58.9079 C.ar    1  ZINC000013809319   -0.2100
     24 C24       -11.1917   -0.2674   58.7603 C.ar    1  ZINC000013809319    0.1300
     25 O25       -12.4779   -0.1038   58.3533 O.3     1  ZINC000013809319   -0.3100
     26 C26       -12.9146    1.2341   58.1050 C.3     1  ZINC000013809319    0.0300
     27 C27       -10.5059   -1.3465   52.3898 C.2     1  ZINC000013809319    0.3900
     28 N28        -9.5321   -0.7079   51.8026 N.2     1  ZINC000013809319   -0.5300
     29 C29        -6.6205    0.6404   51.7273 C.ar    1  ZINC000013809319   -0.0500
     30 C30        -5.5912    1.2936   51.0852 C.ar    1  ZINC000013809319   -0.1600
     31 H31        -4.5378    5.4562   50.9174 H       1  ZINC000013809319    0.0700
     32 H32        -4.9715    4.2286   52.1312 H       1  ZINC000013809319    0.0700
     33 H33        -3.3298    4.9158   52.1077 H       1  ZINC000013809319    0.0800
     34 H34        -2.9256    3.8745   49.8939 H       1  ZINC000013809319    0.0600
     35 H35        -3.3593    2.6469   51.1077 H       1  ZINC000013809319    0.0600
     36 H36        -7.3389    3.8332   49.6845 H       1  ZINC000013809319    0.1300
     37 H37        -9.1847    2.6712   50.8177 H       1  ZINC000013809319    0.1400
     38 H38        -9.1853    1.8573   53.9156 H       1  ZINC000013809319    0.1600
     39 H39       -12.8547   -0.9459   54.6230 H       1  ZINC000013809319    0.1300
     40 H40       -12.6872   -2.2166   53.3878 H       1  ZINC000013809319    0.1300
     41 H41       -12.5653   -1.7289   56.7458 H       1  ZINC000013809319    0.4000
     42 H42       -11.9322   -4.3016   57.4412 H       1  ZINC000013809319    0.0700
     43 H43       -10.3480   -3.5002   57.3122 H       1  ZINC000013809319    0.0700
     44 H44       -12.6448   -2.4314   59.0069 H       1  ZINC000013809319    0.0800
     45 H45       -11.3547   -3.4786   59.6452 H       1  ZINC000013809319    0.0800
     46 H46        -9.0208   -2.6897   59.6657 H       1  ZINC000013809319    0.1300
     47 H47        -7.5527   -0.7301   59.9177 H       1  ZINC000013809319    0.1300
     48 H48        -8.4108    1.5252   59.4333 H       1  ZINC000013809319    0.1300
     49 H49       -10.7400    1.8259   58.6958 H       1  ZINC000013809319    0.1300
     50 H50       -12.3007    1.6770   57.3207 H       1  ZINC000013809319    0.0600
     51 H51       -13.9572    1.2228   57.7874 H       1  ZINC000013809319    0.1000
     52 H52       -12.8190    1.8227   59.0173 H       1  ZINC000013809319    0.0600
     53 H53       -10.8768   -2.2598   51.9487 H       1  ZINC000013809319    0.2000
     54 H54        -6.4202   -0.2535   52.2994 H       1  ZINC000013809319    0.1400
     55 H55        -4.5829    0.9134   51.1574 H       1  ZINC000013809319    0.1400
@<TRIPOS>BOND
     1     1     2    1
     2     1    31    1
     3     1    32    1
     4     1    33    1
     5     2     3    1
     6     2    34    1
     7     2    35    1
     8     3     4    1
     9     4    30   ar
    10     4     5   ar
    11     5     6   ar
    12     5    36    1
    13     6     7   ar
    14     6    37    1
    15     7     8    1
    16     7    29   ar
    17     8    28    1
    18     8     9    2
    19     9    10    1
    20     9    38    1
    21    10    11    2
    22    10    12   am
    23    12    13    1
    24    12    27    1
    25    13    14    1
    26    13    39    1
    27    13    40    1
    28    14    15    2
    29    14    16   am
    30    16    17    1
    31    16    41    1
    32    17    18    1
    33    17    42    1
    34    17    43    1
    35    18    19    1
    36    18    44    1
    37    18    45    1
    38    19    24   ar
    39    19    20   ar
    40    20    21   ar
    41    20    46    1
    42    21    22   ar
    43    21    47    1
    44    22    23   ar
    45    22    48    1
    46    23    24   ar
    47    23    49    1
    48    24    25    1
    49    25    26    1
    50    26    50    1
    51    26    51    1
    52    26    52    1
    53    27    28    2
    54    27    53    1
    55    29    30   ar
    56    29    54    1
    57    30    55    1
@<TRIPOS>SUBSTRUCTURE
     1 ZINC000013809319        1 TEMP              0 ****  ****    0 ROOT


##########                                Name:    ZINC000474251633
##########                DOCK_Rotatable_Bonds:                   8
##########                         Heavy_Atoms:                  28
##########                    Molecular_Weight:             416.931
##########                DOCK_Rotatable_Bonds:                   8
##########                       Formal_Charge:          0.00999953
##########                     HBond_Acceptors:                   8
##########                        HBond_Donors:                   2
##########                         Heavy_Atoms:                  28
##########                          Grid_Score:          -37.141907
##########                     Grid_vdw_energy:          -36.403450
##########                      Grid_es_energy:           -0.738457
##########           Internal_energy_repulsive:            6.496992

@<TRIPOS>MOLECULE
ZINC000474251633
 49 52 1 0 0
SMALL
USER_CHARGES


@<TRIPOS>ATOM
      1 O1        -12.5979   -1.5684   54.9840 O.2     1  ZINC000474251633   -0.5300
      2 C2        -11.8345   -2.5097   54.9374 C.2     1  ZINC000474251633    0.5100
      3 C3        -11.4788   -3.2544   56.1984 C.3     1  ZINC000474251633    0.1000
      4 N4        -11.6079   -2.3565   57.3487 N.am    1  ZINC000474251633   -0.7100
      5 C5        -11.2590   -2.7827   58.5788 C.2     1  ZINC000474251633    0.5900
      6 O6        -10.8353   -3.9127   58.7336 O.2     1  ZINC000474251633   -0.5000
      7 C7        -11.3901   -1.8833   59.7320 C.2     1  ZINC000474251633   -0.2300
      8 C8        -10.3617   -1.3694   60.4170 C.2     1  ZINC000474251633    0.0400
      9 Cl9        -8.7106   -1.7167   60.0083 Cl      1  ZINC000474251633   -0.0100
     10 C10       -10.7078   -0.5291   61.4892 C.ar    1  ZINC000474251633   -0.0900
     11 C11        -9.8585    0.1560   62.3899 C.ar    1  ZINC000474251633   -0.0600
     12 C12       -10.3811    0.9325   63.3761 C.ar    1  ZINC000474251633   -0.1200
     13 C13       -11.7564    1.0681   63.5180 C.ar    1  ZINC000474251633   -0.0800
     14 C14       -12.6073    0.4149   62.6590 C.ar    1  ZINC000474251633   -0.0900
     15 C15       -12.0936   -0.3892   61.6364 C.ar    1  ZINC000474251633   -0.1200
     16 S16       -12.9165   -1.3288   60.3966 S.3     1  ZINC000474251633    0.1700
     17 N17       -11.3086   -2.8932   53.7572 N.am    1  ZINC000474251633   -0.7200
     18 C18       -11.6544   -2.1693   52.5315 C.3     1  ZINC000474251633    0.2100
     19 C19       -10.8095   -0.9257   52.4272 C.2     1  ZINC000474251633    0.0500
     20 N20        -9.5061   -0.8731   52.5280 N.2     1  ZINC000474251633   -0.2700
     21 N21        -9.1086    0.4613   52.3731 N.pl3   1  ZINC000474251633   -0.3600
     22 C22        -7.7322    0.9612   52.4171 C.3     1  ZINC000474251633    0.1500
     23 C23        -7.2798    1.3878   51.0053 C.3     1  ZINC000474251633   -0.1400
     24 C24        -7.5456    2.9132   50.9660 C.3     1  ZINC000474251633   -0.1300
     25 C25        -7.1598    3.3644   52.3966 C.3     1  ZINC000474251633   -0.1200
     26 C26        -7.6559    2.2180   53.3016 C.3     1  ZINC000474251633   -0.1400
     27 C27       -10.2175    1.2047   52.1764 C.2     1  ZINC000474251633    0.0600
     28 C28       -11.2828    0.3707   52.1997 C.2     1  ZINC000474251633   -0.2600
     29 H29       -12.1526   -4.1023   56.3219 H       1  ZINC000474251633    0.1100
     30 H30       -10.4518   -3.6132   56.1311 H       1  ZINC000474251633    0.1100
     31 H31       -11.9446   -1.4552   57.2251 H       1  ZINC000474251633    0.4100
     32 H32        -8.7870    0.0611   62.2936 H       1  ZINC000474251633    0.1300
     33 H33        -9.7202    1.4491   64.0564 H       1  ZINC000474251633    0.1400
     34 H34       -12.1579    1.6881   64.3059 H       1  ZINC000474251633    0.1400
     35 H35       -13.6758    0.5229   62.7738 H       1  ZINC000474251633    0.1400
     36 H36       -10.7011   -3.6485   53.7195 H       1  ZINC000474251633    0.4100
     37 H37       -11.4692   -2.8078   51.6678 H       1  ZINC000474251633    0.0900
     38 H38       -12.7080   -1.8912   52.5586 H       1  ZINC000474251633    0.0900
     39 H39        -7.0674    0.1900   52.8059 H       1  ZINC000474251633    0.1100
     40 H40        -6.2184    1.1818   50.8664 H       1  ZINC000474251633    0.0900
     41 H41        -7.8710    0.8778   50.2448 H       1  ZINC000474251633    0.0800
     42 H42        -6.9106    3.3969   50.2238 H       1  ZINC000474251633    0.0800
     43 H43        -8.5978    3.1169   50.7673 H       1  ZINC000474251633    0.0700
     44 H44        -6.0791    3.4777   52.4823 H       1  ZINC000474251633    0.0700
     45 H45        -7.6634    4.2969   52.6513 H       1  ZINC000474251633    0.0700
     46 H46        -8.6430    2.4559   53.6982 H       1  ZINC000474251633    0.0700
     47 H47        -6.9535    2.0569   54.1193 H       1  ZINC000474251633    0.0800
     48 H48       -10.2487    2.2734   52.0233 H       1  ZINC000474251633    0.1700
     49 H49       -12.3164    0.6564   52.0715 H       1  ZINC000474251633    0.1500
@<TRIPOS>BOND
     1     1     2    2
     2     2     3    1
     3     2    17   am
     4     3     4    1
     5     3    29    1
     6     3    30    1
     7     4     5   am
     8     4    31    1
     9     5     6    2
    10     5     7    1
    11     7    16    1
    12     7     8    2
    13     8     9    1
    14     8    10    1
    15    10    15   ar
    16    10    11   ar
    17    11    12   ar
    18    11    32    1
    19    12    13   ar
    20    12    33    1
    21    13    14   ar
    22    13    34    1
    23    14    15   ar
    24    14    35    1
    25    15    16    1
    26    17    18    1
    27    17    36    1
    28    18    19    1
    29    18    37    1
    30    18    38    1
    31    19    28    1
    32    19    20    2
    33    20    21    1
    34    21    22    1
    35    21    27    1
    36    22    26    1
    37    22    23    1
    38    22    39    1
    39    23    24    1
    40    23    40    1
    41    23    41    1
    42    24    25    1
    43    24    42    1
    44    24    43    1
    45    25    26    1
    46    25    44    1
    47    25    45    1
    48    26    46    1
    49    26    47    1
    50    27    28    2
    51    27    48    1
    52    28    49    1
@<TRIPOS>SUBSTRUCTURE
     1 ZINC000474251633        1 TEMP              0 ****  ****    0 ROOT


##########                                Name:    ZINC000185598309
##########                DOCK_Rotatable_Bonds:                  14
##########                         Heavy_Atoms:                  25
##########                    Molecular_Weight:             347.457
##########                DOCK_Rotatable_Bonds:                  14
##########                       Formal_Charge:               -0.02
##########                     HBond_Acceptors:                   6
##########                        HBond_Donors:                   4
##########                         Heavy_Atoms:                  25
##########                          Grid_Score:          -36.876621
##########                     Grid_vdw_energy:          -34.446842
##########                      Grid_es_energy:           -2.429780
##########           Internal_energy_repulsive:           15.948871

@<TRIPOS>MOLECULE
ZINC000185598309
 54 54 1 0 0
SMALL
USER_CHARGES


@<TRIPOS>ATOM
      1 C1        -12.1220   -0.9275   52.2135 C.3     1  ZINC000185598309   -0.1300
      2 C2        -11.5089   -2.2630   52.5477 C.2     1  ZINC000185598309   -0.1600
      3 C3        -11.2035   -2.5515   53.7885 C.2     1  ZINC000185598309   -0.1600
      4 C4        -11.4667   -1.5486   54.8821 C.3     1  ZINC000185598309   -0.0900
      5 C5        -11.7168   -2.2847   56.1998 C.3     1  ZINC000185598309    0.1700
      6 H6        -11.0950   -3.1791   56.2401 H       1  ZINC000185598309    0.1000
      7 C7        -13.1911   -2.6840   56.2891 C.3     1  ZINC000185598309    0.0600
      8 O8        -13.3690   -3.6135   57.3596 O.3     1  ZINC000185598309   -0.5700
      9 N9        -11.3804   -1.4052   57.3220 N.am    1  ZINC000185598309   -0.7300
     10 C10       -10.7632   -1.9069   58.4101 C.2     1  ZINC000185598309    0.7000
     11 O11       -10.4843   -3.0893   58.4595 O.2     1  ZINC000185598309   -0.5900
     12 N12       -10.4551   -1.0980   59.4431 N.am    1  ZINC000185598309   -0.7400
     13 C13        -9.7858   -1.6439   60.6265 C.3     1  ZINC000185598309    0.1800
     14 C14       -10.0561   -0.7533   61.8119 C.ar    1  ZINC000185598309   -0.0900
     15 C15       -11.3436   -0.3225   62.0726 C.ar    1  ZINC000185598309   -0.1100
     16 C16       -11.5957    0.4952   63.1591 C.ar    1  ZINC000185598309   -0.1000
     17 C17       -10.5614    0.8836   63.9875 C.ar    1  ZINC000185598309   -0.1100
     18 C18        -9.2668    0.4522   63.7286 C.ar    1  ZINC000185598309    0.1400
     19 N19        -8.2166    0.8435   64.5662 N.am    1  ZINC000185598309   -0.6800
     20 C20        -7.9070    0.1035   65.6493 C.2     1  ZINC000185598309    0.5200
     21 O21        -8.5387   -0.9015   65.8979 O.2     1  ZINC000185598309   -0.5200
     22 C22        -6.7758    0.5250   66.5515 C.3     1  ZINC000185598309   -0.1100
     23 H23        -6.1640   -0.3430   66.7970 H       1  ZINC000185598309    0.1000
     24 C24        -7.3462    1.1268   67.8373 C.3     1  ZINC000185598309   -0.1500
     25 C25        -5.9158    1.5695   65.8372 C.3     1  ZINC000185598309   -0.1100
     26 C26        -4.5265    1.6099   66.4767 C.3     1  ZINC000185598309   -0.1600
     27 C27        -9.0179   -0.3730   62.6399 C.ar    1  ZINC000185598309   -0.1300
     28 H28       -12.3051   -0.8701   51.1405 H       1  ZINC000185598309    0.0600
     29 H29       -13.0646   -0.8162   52.7493 H       1  ZINC000185598309    0.0600
     30 H30       -11.4396   -0.1305   52.5088 H       1  ZINC000185598309    0.0600
     31 H31       -11.3213   -2.9824   51.7642 H       1  ZINC000185598309    0.1100
     32 H32       -10.7629   -3.5081   54.0277 H       1  ZINC000185598309    0.1100
     33 H33       -10.6022   -0.8935   54.9902 H       1  ZINC000185598309    0.0900
     34 H34       -12.3436   -0.9537   54.6261 H       1  ZINC000185598309    0.0800
     35 H35       -13.7971   -1.7969   56.4736 H       1  ZINC000185598309    0.0500
     36 H36       -13.4998   -3.1461   55.3514 H       1  ZINC000185598309    0.0500
     37 H37       -13.1053   -3.2720   58.2251 H       1  ZINC000185598309    0.3800
     38 H38       -11.6018   -0.4616   57.2820 H       1  ZINC000185598309    0.4000
     39 H39       -10.6766   -0.1545   59.4031 H       1  ZINC000185598309    0.4000
     40 H40       -10.1663   -2.6448   60.8298 H       1  ZINC000185598309    0.0700
     41 H41        -8.7119   -1.6930   60.4463 H       1  ZINC000185598309    0.0800
     42 H42       -12.1543   -0.6249   61.4263 H       1  ZINC000185598309    0.1300
     43 H43       -12.6025    0.8306   63.3598 H       1  ZINC000185598309    0.1300
     44 H44       -10.7588    1.5224   64.8356 H       1  ZINC000185598309    0.1300
     45 H45        -7.7114    1.6473   64.3675 H       1  ZINC000185598309    0.4100
     46 H46        -7.9590    0.3827   68.3462 H       1  ZINC000185598309    0.0600
     47 H47        -6.5281    1.4318   68.4899 H       1  ZINC000185598309    0.0800
     48 H48        -7.9580    1.9949   67.5919 H       1  ZINC000185598309    0.0600
     49 H49        -5.8234    1.3052   64.7838 H       1  ZINC000185598309    0.0700
     50 H50        -6.3854    2.5492   65.9262 H       1  ZINC000185598309    0.0700
     51 H51        -4.6189    1.8743   67.5302 H       1  ZINC000185598309    0.0600
     52 H52        -4.0569    0.6303   66.3878 H       1  ZINC000185598309    0.0600
     53 H53        -3.9138    2.3541   65.9679 H       1  ZINC000185598309    0.0600
     54 H54        -8.0124   -0.7101   62.4359 H       1  ZINC000185598309    0.1300
@<TRIPOS>BOND
     1     1     2    1
     2     1    28    1
     3     1    29    1
     4     1    30    1
     5     2     3    2
     6     2    31    1
     7     3     4    1
     8     3    32    1
     9     4     5    1
    10     4    33    1
    11     4    34    1
    12     5     6    1
    13     5     7    1
    14     5     9    1
    15     7     8    1
    16     7    35    1
    17     7    36    1
    18     8    37    1
    19     9    10   am
    20     9    38    1
    21    10    11    2
    22    10    12   am
    23    12    13    1
    24    12    39    1
    25    13    14    1
    26    13    40    1
    27    13    41    1
    28    14    27   ar
    29    14    15   ar
    30    15    16   ar
    31    15    42    1
    32    16    17   ar
    33    16    43    1
    34    17    18   ar
    35    17    44    1
    36    18    19    1
    37    18    27   ar
    38    19    20   am
    39    19    45    1
    40    20    21    2
    41    20    22    1
    42    22    23    1
    43    22    24    1
    44    22    25    1
    45    24    46    1
    46    24    47    1
    47    24    48    1
    48    25    26    1
    49    25    49    1
    50    25    50    1
    51    26    51    1
    52    26    52    1
    53    26    53    1
    54    27    54    1
@<TRIPOS>SUBSTRUCTURE
     1 ZINC000185598309        1 TEMP              0 ****  ****    0 ROOT


##########                                Name:    ZINC000062291520
##########                DOCK_Rotatable_Bonds:                  10
##########                         Heavy_Atoms:                  29
##########                    Molecular_Weight:             398.502
##########                DOCK_Rotatable_Bonds:                  10
##########                       Formal_Charge:          -0.0100006
##########                     HBond_Acceptors:                   6
##########                        HBond_Donors:                   1
##########                         Heavy_Atoms:                  29
##########                          Grid_Score:          -36.746056
##########                     Grid_vdw_energy:          -35.052418
##########                      Grid_es_energy:           -1.693639
##########           Internal_energy_repulsive:           21.934919

@<TRIPOS>MOLECULE
ZINC000062291520
 59 61 1 0 0
SMALL
USER_CHARGES


@<TRIPOS>ATOM
      1 C1          1.6051   -1.4845   61.6196 C.3     1  ZINC000062291520    0.0300
      2 O2          1.0871   -0.5246   60.6963 O.3     1  ZINC000062291520   -0.3100
      3 C3          0.1742    0.3623   61.1751 C.ar    1  ZINC000062291520    0.1000
      4 C4         -0.2693    0.2637   62.4837 C.ar    1  ZINC000062291520   -0.1700
      5 C5         -1.2020    1.1630   62.9672 C.ar    1  ZINC000062291520   -0.1200
      6 C6         -1.6894    2.1648   62.1492 C.ar    1  ZINC000062291520   -0.1200
      7 C7         -1.2462    2.2725   60.8438 C.ar    1  ZINC000062291520   -0.1700
      8 C8         -0.3121    1.3749   60.3531 C.ar    1  ZINC000062291520    0.1000
      9 O9          0.1249    1.4796   59.0695 O.3     1  ZINC000062291520   -0.3100
     10 C10        -0.3983    2.5584   58.2920 C.3     1  ZINC000062291520    0.0700
     11 C11        -1.7972    2.1941   57.7906 C.3     1  ZINC000062291520   -0.1400
     12 C12        -2.2903    3.2670   56.8542 C.2     1  ZINC000062291520    0.5200
     13 O13        -2.8591    4.2428   57.2958 O.2     1  ZINC000062291520   -0.5400
     14 N14        -2.0993    3.1418   55.5260 N.am    1  ZINC000062291520   -0.7200
     15 C15        -2.5771    4.1856   54.6157 C.3     1  ZINC000062291520    0.1600
     16 C16        -2.5543    3.6673   53.2008 C.ar    1  ZINC000062291520   -0.1100
     17 C17        -1.5180    4.0139   52.3545 C.ar    1  ZINC000062291520   -0.1000
     18 C18        -1.4968    3.5380   51.0566 C.ar    1  ZINC000062291520   -0.1200
     19 C19        -2.5120    2.7157   50.6053 C.ar    1  ZINC000062291520   -0.0900
     20 C20        -3.5489    2.3694   51.4518 C.ar    1  ZINC000062291520   -0.0800
     21 C21        -4.6559    1.4732   50.9597 C.3     1  ZINC000062291520    0.0900
     22 N22        -5.9539    2.0344   51.3575 N.3     1  ZINC000062291520   -0.5300
     23 C23        -6.5165    2.8707   50.2871 C.3     1  ZINC000062291520    0.0100
     24 C24        -7.8364    3.4818   50.7650 C.3     1  ZINC000062291520    0.0600
     25 O25        -8.7266    2.4338   51.1578 O.3     1  ZINC000062291520   -0.3800
     26 C26        -8.2106    1.6001   52.1990 C.3     1  ZINC000062291520    0.0900
     27 H27        -8.0332    2.2002   53.0915 H       1  ZINC000062291520    0.0700
     28 C28        -9.2212    0.4966   52.5180 C.3     1  ZINC000062291520   -0.1500
     29 C29        -6.8945    0.9699   51.7358 C.3     1  ZINC000062291520    0.0200
     30 C30        -3.5670    2.8405   52.7511 C.ar    1  ZINC000062291520   -0.0900
     31 H31         2.1017   -0.9676   62.4408 H       1  ZINC000062291520    0.0500
     32 H32         0.7875   -2.0891   62.0122 H       1  ZINC000062291520    0.0600
     33 H33         2.3214   -2.1291   61.1100 H       1  ZINC000062291520    0.1000
     34 H34         0.1099   -0.5181   63.1250 H       1  ZINC000062291520    0.1400
     35 H35        -1.5501    1.0825   63.9864 H       1  ZINC000062291520    0.1300
     36 H36        -2.4177    2.8651   62.5305 H       1  ZINC000062291520    0.1300
     37 H37        -1.6281    3.0566   60.2068 H       1  ZINC000062291520    0.1400
     38 H38         0.2563    2.7431   57.4402 H       1  ZINC000062291520    0.0700
     39 H39        -0.4553    3.4559   58.9078 H       1  ZINC000062291520    0.0700
     40 H40        -2.4769    2.1115   58.6387 H       1  ZINC000062291520    0.1100
     41 H41        -1.7573    1.2413   57.2627 H       1  ZINC000062291520    0.1100
     42 H42        -1.6455    2.3608   55.1726 H       1  ZINC000062291520    0.4000
     43 H43        -3.5963    4.4634   54.8845 H       1  ZINC000062291520    0.0800
     44 H44        -1.9300    5.0593   54.6931 H       1  ZINC000062291520    0.0800
     45 H45        -0.7246    4.6561   52.7073 H       1  ZINC000062291520    0.1200
     46 H46        -0.6868    3.8085   50.3954 H       1  ZINC000062291520    0.1300
     47 H47        -2.4954    2.3440   49.5914 H       1  ZINC000062291520    0.1200
     48 H48        -4.6089    1.4009   49.8731 H       1  ZINC000062291520    0.0500
     49 H49        -4.5404    0.4806   51.3951 H       1  ZINC000062291520    0.0900
     50 H50        -5.8145    3.6674   50.0407 H       1  ZINC000062291520    0.0900
     51 H51        -6.6969    2.2584   49.4037 H       1  ZINC000062291520    0.0400
     52 H52        -7.6473    4.1368   51.6155 H       1  ZINC000062291520    0.0600
     53 H53        -8.2856    4.0565   49.9550 H       1  ZINC000062291520    0.1000
     54 H54        -9.3970   -0.1041   51.6256 H       1  ZINC000062291520    0.0600
     55 H55        -8.8274   -0.1384   53.3116 H       1  ZINC000062291520    0.0700
     56 H56       -10.1592    0.9460   52.8441 H       1  ZINC000062291520    0.0700
     57 H57        -7.0818    0.3270   50.8757 H       1  ZINC000062291520    0.0400
     58 H58        -6.4686    0.3791   52.5467 H       1  ZINC000062291520    0.0900
     59 H59        -4.3745    2.5661   53.4137 H       1  ZINC000062291520    0.1200
@<TRIPOS>BOND
     1     1     2    1
     2     1    31    1
     3     1    32    1
     4     1    33    1
     5     2     3    1
     6     3     8   ar
     7     3     4   ar
     8     4     5   ar
     9     4    34    1
    10     5     6   ar
    11     5    35    1
    12     6     7   ar
    13     6    36    1
    14     7     8   ar
    15     7    37    1
    16     8     9    1
    17     9    10    1
    18    10    11    1
    19    10    38    1
    20    10    39    1
    21    11    12    1
    22    11    40    1
    23    11    41    1
    24    12    13    2
    25    12    14   am
    26    14    15    1
    27    14    42    1
    28    15    16    1
    29    15    43    1
    30    15    44    1
    31    16    30   ar
    32    16    17   ar
    33    17    18   ar
    34    17    45    1
    35    18    19   ar
    36    18    46    1
    37    19    20   ar
    38    19    47    1
    39    20    21    1
    40    20    30   ar
    41    21    22    1
    42    21    48    1
    43    21    49    1
    44    22    29    1
    45    22    23    1
    46    23    24    1
    47    23    50    1
    48    23    51    1
    49    24    25    1
    50    24    52    1
    51    24    53    1
    52    25    26    1
    53    26    27    1
    54    26    28    1
    55    26    29    1
    56    28    54    1
    57    28    55    1
    58    28    56    1
    59    29    57    1
    60    29    58    1
    61    30    59    1
@<TRIPOS>SUBSTRUCTURE
     1 ZINC000062291520        1 TEMP              0 ****  ****    0 ROOT


##########                                Name:    ZINC000767361237
##########                DOCK_Rotatable_Bonds:                  10
##########                         Heavy_Atoms:                  30
##########                    Molecular_Weight:             409.439
##########                DOCK_Rotatable_Bonds:                  10
##########                       Formal_Charge:          -0.0300005
##########                     HBond_Acceptors:                   7
##########                        HBond_Donors:                   1
##########                         Heavy_Atoms:                  30
##########                          Grid_Score:          -36.728371
##########                     Grid_vdw_energy:          -36.181652
##########                      Grid_es_energy:           -0.546720
##########           Internal_energy_repulsive:           16.892683

@<TRIPOS>MOLECULE
ZINC000767361237
 53 55 1 0 0
SMALL
USER_CHARGES


@<TRIPOS>ATOM
      1 C1        -10.3688    5.7079   50.1345 C.3     1  ZINC000767361237   -0.1200
      2 C2         -9.3620    4.7140   50.6537 C.ar    1  ZINC000767361237   -0.0900
      3 C3         -8.7736    3.8102   49.7890 C.ar    1  ZINC000767361237   -0.1200
      4 C4         -7.8501    2.8986   50.2653 C.ar    1  ZINC000767361237   -0.1100
      5 C5         -7.5148    2.8908   51.6063 C.ar    1  ZINC000767361237   -0.0800
      6 C6         -6.5084    1.8966   52.1256 C.3     1  ZINC000767361237   -0.0800
      7 H7         -6.2433    2.1503   53.1519 H       1  ZINC000767361237    0.0900
      8 C8         -5.2542    1.9361   51.2503 C.3     1  ZINC000767361237   -0.1500
      9 C9         -7.1130    0.4916   52.0875 C.3     1  ZINC000767361237    0.1300
     10 H10        -6.4108   -0.2180   52.5252 H       1  ZINC000767361237    0.1400
     11 O11        -7.3791    0.1242   50.7325 O.3     1  ZINC000767361237   -0.5200
     12 C12        -8.3985    0.4764   52.8739 C.2     1  ZINC000767361237    0.4300
     13 O13        -8.5512    1.2414   53.7967 O.2     1  ZINC000767361237   -0.5000
     14 O14        -9.3737   -0.3869   52.5492 O.3     1  ZINC000767361237   -0.3300
     15 C15       -10.6845   -0.1481   53.1264 C.3     1  ZINC000767361237    0.0100
     16 C16       -11.5395   -1.3774   52.9568 C.2     1  ZINC000767361237    0.3700
     17 O17       -11.4195   -2.0651   51.9714 O.2     1  ZINC000767361237   -0.4200
     18 C18       -12.5442   -1.7485   54.0170 C.3     1  ZINC000767361237   -0.1800
     19 C19       -11.9425   -2.8095   54.9407 C.3     1  ZINC000767361237    0.1200
     20 N20       -12.6948   -2.8462   56.1973 N.am    1  ZINC000767361237   -0.5800
     21 C21       -12.3033   -2.2472   57.3364 C.2     1  ZINC000767361237    0.5700
     22 O22       -11.2861   -1.6003   57.4839 O.2     1  ZINC000767361237   -0.4600
     23 C23       -13.3190   -2.5075   58.3785 C.ar    1  ZINC000767361237   -0.1400
     24 C24       -13.4502   -2.1537   59.7114 C.ar    1  ZINC000767361237   -0.0400
     25 C25       -14.5598   -2.5749   60.4283 C.ar    1  ZINC000767361237   -0.0900
     26 C26       -15.5345   -3.3445   59.8222 C.ar    1  ZINC000767361237   -0.0900
     27 C27       -15.4165   -3.7062   58.4890 C.ar    1  ZINC000767361237   -0.0400
     28 C28       -14.3133   -3.2926   57.7602 C.ar    1  ZINC000767361237   -0.1400
     29 C29       -13.8706   -3.4785   56.3623 C.2     1  ZINC000767361237    0.5700
     30 O30       -14.4676   -4.0998   55.5063 O.2     1  ZINC000767361237   -0.4600
     31 C31        -8.1022    3.7954   52.4708 C.ar    1  ZINC000767361237   -0.1100
     32 C32        -9.0229    4.7097   51.9939 C.ar    1  ZINC000767361237   -0.1200
     33 H33        -9.8541    6.6157   49.8198 H       1  ZINC000767361237    0.0700
     34 H34       -10.8991    5.2778   49.2849 H       1  ZINC000767361237    0.0700
     35 H35       -11.0814    5.9492   50.9233 H       1  ZINC000767361237    0.0700
     36 H36        -9.0356    3.8164   48.7412 H       1  ZINC000767361237    0.1200
     37 H37        -7.3909    2.1920   49.5897 H       1  ZINC000767361237    0.1200
     38 H38        -4.5262    1.2170   51.6259 H       1  ZINC000767361237    0.0800
     39 H39        -5.5193    1.6823   50.2239 H       1  ZINC000767361237    0.0700
     40 H40        -4.8235    2.9371   51.2774 H       1  ZINC000767361237    0.0600
     41 H41        -6.5975    0.1279   50.1631 H       1  ZINC000767361237    0.3900
     42 H42       -10.5786    0.0773   54.1876 H       1  ZINC000767361237    0.1100
     43 H43       -11.1558    0.6948   52.6211 H       1  ZINC000767361237    0.1100
     44 H44       -12.8016   -0.8638   54.5992 H       1  ZINC000767361237    0.1100
     45 H45       -13.4420   -2.1459   53.5435 H       1  ZINC000767361237    0.1100
     46 H46       -11.9955   -3.7848   54.4569 H       1  ZINC000767361237    0.1100
     47 H47       -10.9012   -2.5627   55.1477 H       1  ZINC000767361237    0.1100
     48 H48       -12.6913   -1.5527   60.1902 H       1  ZINC000767361237    0.1400
     49 H49       -14.6628   -2.2999   61.4675 H       1  ZINC000767361237    0.1400
     50 H50       -16.3940   -3.6668   60.3912 H       1  ZINC000767361237    0.1400
     51 H51       -16.1816   -4.3075   58.0204 H       1  ZINC000767361237    0.1400
     52 H52        -7.8400    3.7896   53.5185 H       1  ZINC000767361237    0.1200
     53 H53        -9.4818    5.4165   52.6693 H       1  ZINC000767361237    0.1200
@<TRIPOS>BOND
     1     1     2    1
     2     1    33    1
     3     1    34    1
     4     1    35    1
     5     2    32   ar
     6     2     3   ar
     7     3     4   ar
     8     3    36    1
     9     4     5   ar
    10     4    37    1
    11     5     6    1
    12     5    31   ar
    13     6     7    1
    14     6     8    1
    15     6     9    1
    16     8    38    1
    17     8    39    1
    18     8    40    1
    19     9    10    1
    20     9    11    1
    21     9    12    1
    22    11    41    1
    23    12    13    2
    24    12    14    1
    25    14    15    1
    26    15    16    1
    27    15    42    1
    28    15    43    1
    29    16    17    2
    30    16    18    1
    31    18    19    1
    32    18    44    1
    33    18    45    1
    34    19    20    1
    35    19    46    1
    36    19    47    1
    37    20    29   am
    38    20    21   am
    39    21    22    2
    40    21    23    1
    41    23    28   ar
    42    23    24   ar
    43    24    25   ar
    44    24    48    1
    45    25    26   ar
    46    25    49    1
    47    26    27   ar
    48    26    50    1
    49    27    28   ar
    50    27    51    1
    51    28    29    1
    52    29    30    2
    53    31    32   ar
    54    31    52    1
    55    32    53    1
@<TRIPOS>SUBSTRUCTURE
     1 ZINC000767361237        1 TEMP              0 ****  ****    0 ROOT


##########                                Name:    ZINC000546142192
##########                DOCK_Rotatable_Bonds:                  12
##########                         Heavy_Atoms:                  31
##########                    Molecular_Weight:             420.511
##########                DOCK_Rotatable_Bonds:                  12
##########                       Formal_Charge:          -0.0599997
##########                     HBond_Acceptors:                   7
##########                        HBond_Donors:                   2
##########                         Heavy_Atoms:                  31
##########                          Grid_Score:          -36.617783
##########                     Grid_vdw_energy:          -35.750000
##########                      Grid_es_energy:           -0.867784
##########           Internal_energy_repulsive:           13.116063

@<TRIPOS>MOLECULE
ZINC000546142192
 59 61 1 0 0
SMALL
USER_CHARGES


@<TRIPOS>ATOM
      1 C1        -14.1796   -1.0165   48.1121 C.3     1  ZINC000546142192    0.0300
      2 O2        -13.5072   -0.5293   49.3033 O.3     1  ZINC000546142192   -0.3600
      3 C3        -14.2539   -0.3875   50.4097 C.2     1  ZINC000546142192    0.4600
      4 O4        -15.3626   -0.8657   50.4556 O.2     1  ZINC000546142192   -0.5100
      5 C5        -13.7093    0.3680   51.5945 C.3     1  ZINC000546142192   -0.0800
      6 H6        -13.0374    1.1527   51.2474 H       1  ZINC000546142192    0.1100
      7 C7        -14.8662    0.9954   52.3748 C.3     1  ZINC000546142192   -0.1500
      8 C8        -12.9429   -0.5942   52.5044 C.3     1  ZINC000546142192   -0.0600
      9 C9        -11.4854   -0.2115   52.5260 C.ar    1  ZINC000546142192   -0.1000
     10 C10       -10.5429   -1.0523   51.9631 C.ar    1  ZINC000546142192   -0.0900
     11 C11        -9.2064   -0.7043   51.9809 C.ar    1  ZINC000546142192   -0.1200
     12 C12        -8.8097    0.4915   52.5648 C.ar    1  ZINC000546142192    0.1600
     13 N13        -7.4564    0.8474   52.5840 N.am    1  ZINC000546142192   -0.6900
     14 C14        -6.8987    1.4350   51.5069 C.2     1  ZINC000546142192    0.7100
     15 O15        -7.5715    1.6558   50.5185 O.2     1  ZINC000546142192   -0.5700
     16 N16        -5.5954    1.7777   51.5253 N.am    1  ZINC000546142192   -0.7400
     17 C17        -4.9889    2.4149   50.3539 C.3     1  ZINC000546142192    0.2300
     18 C18        -3.6474    2.9881   50.7320 C.2     1  ZINC000546142192    0.1800
     19 N19        -2.4873    2.4834   50.4123 N.2     1  ZINC000546142192   -0.4700
     20 C20        -1.5143    3.2565   50.9169 C.2     1  ZINC000546142192   -0.0300
     21 C21        -2.0935    4.2791   51.5744 C.2     1  ZINC000546142192   -0.0400
     22 N22        -3.4467    4.1123   51.4529 N.pl3   1  ZINC000546142192   -0.4500
     23 C23        -4.4837    4.9855   52.0084 C.3     1  ZINC000546142192    0.1100
     24 C24        -3.9796    5.6114   53.3102 C.3     1  ZINC000546142192   -0.0900
     25 C25        -3.8639    4.5449   54.3687 C.ar    1  ZINC000546142192   -0.0900
     26 C26        -2.6173    4.1179   54.7863 C.ar    1  ZINC000546142192   -0.1100
     27 C27        -2.5113    3.1396   55.7572 C.ar    1  ZINC000546142192   -0.1200
     28 C28        -3.6519    2.5887   56.3107 C.ar    1  ZINC000546142192   -0.1200
     29 C29        -4.8985    3.0164   55.8937 C.ar    1  ZINC000546142192   -0.1200
     30 C30        -5.0045    3.9977   54.9259 C.ar    1  ZINC000546142192   -0.1100
     31 C31        -9.7587    1.3338   53.1291 C.ar    1  ZINC000546142192   -0.1500
     32 C32       -11.0941    0.9824   53.1035 C.ar    1  ZINC000546142192   -0.0900
     33 H33       -14.9795   -0.3283   47.8394 H       1  ZINC000546142192    0.0600
     34 H34       -13.4638   -1.0846   47.2930 H       1  ZINC000546142192    0.1000
     35 H35       -14.6003   -2.0024   48.3100 H       1  ZINC000546142192    0.0600
     36 H36       -15.5382    0.2106   52.7220 H       1  ZINC000546142192    0.0600
     37 H37       -14.4723    1.5418   53.2318 H       1  ZINC000546142192    0.0800
     38 H38       -15.4122    1.6808   51.7266 H       1  ZINC000546142192    0.0700
     39 H39       -13.3480   -0.5391   53.5148 H       1  ZINC000546142192    0.0800
     40 H40       -13.0459   -1.6114   52.1265 H       1  ZINC000546142192    0.0800
     41 H41       -10.8521   -1.9824   51.5095 H       1  ZINC000546142192    0.1300
     42 H42        -8.4708   -1.3616   51.5415 H       1  ZINC000546142192    0.1400
     43 H43        -6.9197    0.6711   53.3726 H       1  ZINC000546142192    0.4100
     44 H44        -5.0591    1.6027   52.3144 H       1  ZINC000546142192    0.4000
     45 H45        -4.8581    1.6746   49.5645 H       1  ZINC000546142192    0.0800
     46 H46        -5.6385    3.2146   49.9981 H       1  ZINC000546142192    0.1000
     47 H47        -0.4524    3.0883   50.8141 H       1  ZINC000546142192    0.1700
     48 H48        -1.5877    5.0793   52.0941 H       1  ZINC000546142192    0.1800
     49 H49        -4.7167    5.7737   51.2925 H       1  ZINC000546142192    0.1000
     50 H50        -5.3812    4.4009   52.2100 H       1  ZINC000546142192    0.0900
     51 H51        -3.0022    6.0635   53.1415 H       1  ZINC000546142192    0.0800
     52 H52        -4.6816    6.3769   53.6410 H       1  ZINC000546142192    0.0800
     53 H53        -1.7262    4.5483   54.3539 H       1  ZINC000546142192    0.1200
     54 H54        -1.5373    2.8055   56.0830 H       1  ZINC000546142192    0.1200
     55 H55        -3.5690    1.8239   57.0688 H       1  ZINC000546142192    0.1200
     56 H56        -5.7896    2.5857   56.3260 H       1  ZINC000546142192    0.1200
     57 H57        -5.9785    4.3319   54.6001 H       1  ZINC000546142192    0.1200
     58 H58        -9.4531    2.2645   53.5839 H       1  ZINC000546142192    0.1300
     59 H59       -11.8327    1.6373   53.5419 H       1  ZINC000546142192    0.1300
@<TRIPOS>BOND
     1     1     2    1
     2     1    33    1
     3     1    34    1
     4     1    35    1
     5     2     3    1
     6     3     4    2
     7     3     5    1
     8     5     6    1
     9     5     7    1
    10     5     8    1
    11     7    36    1
    12     7    37    1
    13     7    38    1
    14     8     9    1
    15     8    39    1
    16     8    40    1
    17     9    32   ar
    18     9    10   ar
    19    10    11   ar
    20    10    41    1
    21    11    12   ar
    22    11    42    1
    23    12    13    1
    24    12    31   ar
    25    13    14   am
    26    13    43    1
    27    14    15    2
    28    14    16   am
    29    16    17    1
    30    16    44    1
    31    17    18    1
    32    17    45    1
    33    17    46    1
    34    18    22    1
    35    18    19    2
    36    19    20    1
    37    20    21    2
    38    20    47    1
    39    21    22    1
    40    21    48    1
    41    22    23    1
    42    23    24    1
    43    23    49    1
    44    23    50    1
    45    24    25    1
    46    24    51    1
    47    24    52    1
    48    25    30   ar
    49    25    26   ar
    50    26    27   ar
    51    26    53    1
    52    27    28   ar
    53    27    54    1
    54    28    29   ar
    55    28    55    1
    56    29    30   ar
    57    29    56    1
    58    30    57    1
    59    31    32   ar
    60    31    58    1
    61    32    59    1
@<TRIPOS>SUBSTRUCTURE
     1 ZINC000546142192        1 TEMP              0 ****  ****    0 ROOT


##########                                Name:    ZINC001461256440
##########                DOCK_Rotatable_Bonds:                  13
##########                         Heavy_Atoms:                  26
##########                    Molecular_Weight:             367.445
##########                DOCK_Rotatable_Bonds:                  13
##########                       Formal_Charge:        -6.37025e-07
##########                     HBond_Acceptors:                   8
##########                        HBond_Donors:                   1
##########                         Heavy_Atoms:                  26
##########                          Grid_Score:          -36.549973
##########                     Grid_vdw_energy:          -33.105358
##########                      Grid_es_energy:           -3.444615
##########           Internal_energy_repulsive:           37.007969

@<TRIPOS>MOLECULE
ZINC001461256440
 55 55 1 0 0
SMALL
USER_CHARGES


@<TRIPOS>ATOM
      1 C1        -14.9207   -2.2895   61.7724 C.3     1  ZINC001461256440   -0.1500
      2 C2        -14.1724   -1.0301   61.3305 C.3     1  ZINC001461256440    0.0600
      3 O3        -13.5997   -0.3746   62.4926 O.3     1  ZINC001461256440   -0.3600
      4 C4        -12.8367    0.7066   62.2681 C.2     1  ZINC001461256440    0.4400
      5 O5        -13.0994    1.4522   61.3545 O.2     1  ZINC001461256440   -0.4800
      6 C6        -11.6522    0.9904   63.1556 C.3     1  ZINC001461256440    0.1400
      7 N7        -10.4659    0.3217   62.6153 N.pl3   1  ZINC001461256440   -0.3800
      8 N8        -10.3863   -0.3535   61.3907 N.2     1  ZINC001461256440   -0.2800
      9 C9         -9.1704   -0.8173   61.2537 C.2     1  ZINC001461256440    0.1000
     10 C10        -8.6543   -1.6061   60.0779 C.3     1  ZINC001461256440   -0.0700
     11 C11        -8.4322   -0.4553   62.3837 C.2     1  ZINC001461256440   -0.2700
     12 C12        -9.2521    0.2522   63.2081 C.2     1  ZINC001461256440    0.3100
     13 N13        -8.9059    0.7989   64.4437 N.am    1  ZINC001461256440   -0.6500
     14 C14        -8.5416   -0.0083   65.4596 C.2     1  ZINC001461256440    0.5200
     15 O15        -8.5134   -1.2102   65.2989 O.2     1  ZINC001461256440   -0.5000
     16 C16        -8.1693    0.5823   66.7951 C.3     1  ZINC001461256440   -0.1300
     17 C17        -7.5447    1.9631   66.5858 C.3     1  ZINC001461256440   -0.1100
     18 C18        -6.1310    1.8033   66.0229 C.3     1  ZINC001461256440   -0.1100
     19 C19        -5.1415    1.6150   67.1747 C.3     1  ZINC001461256440   -0.1200
     20 C20        -3.7426    1.8865   66.6845 C.2     1  ZINC001461256440    0.4600
     21 O21        -2.9195    2.3542   67.4352 O.2     1  ZINC001461256440   -0.5000
     22 O22        -3.4109    1.6084   65.4139 O.3     1  ZINC001461256440   -0.3500
     23 C23        -2.1674    2.1714   64.9189 C.3     1  ZINC001461256440    0.1200
     24 C24        -0.9913    1.5634   65.6858 C.3     1  ZINC001461256440   -0.1800
     25 C25        -2.0222    1.8562   63.4288 C.3     1  ZINC001461256440   -0.1400
     26 C26        -2.1782    3.6880   65.1206 C.3     1  ZINC001461256440   -0.1800
     27 H27       -15.3506   -2.7816   60.9000 H       1  ZINC001461256440    0.0800
     28 H28       -14.2273   -2.9689   62.2679 H       1  ZINC001461256440    0.0700
     29 H29       -15.7171   -2.0150   62.4641 H       1  ZINC001461256440    0.0700
     30 H30       -13.3760   -1.3046   60.6388 H       1  ZINC001461256440    0.0700
     31 H31       -14.8659   -0.3506   60.8350 H       1  ZINC001461256440    0.0700
     32 H32       -11.4770    2.0655   63.1949 H       1  ZINC001461256440    0.1300
     33 H33       -11.8532    0.6180   64.1600 H       1  ZINC001461256440    0.1400
     34 H34        -8.2493   -0.9227   59.3316 H       1  ZINC001461256440    0.0800
     35 H35        -7.8701   -2.2853   60.4122 H       1  ZINC001461256440    0.0800
     36 H36        -9.4703   -2.1808   59.6395 H       1  ZINC001461256440    0.0700
     37 H37        -7.3946   -0.6918   62.5683 H       1  ZINC001461256440    0.1800
     38 H38        -8.9274    1.7602   64.5718 H       1  ZINC001461256440    0.4100
     39 H39        -9.0629    0.6774   67.4120 H       1  ZINC001461256440    0.1000
     40 H40        -7.4517   -0.0696   67.2933 H       1  ZINC001461256440    0.1000
     41 H41        -8.1527    2.5344   65.8844 H       1  ZINC001461256440    0.0800
     42 H42        -7.4987    2.4893   67.5392 H       1  ZINC001461256440    0.0800
     43 H43        -6.0968    0.9323   65.3685 H       1  ZINC001461256440    0.0700
     44 H44        -5.8628    2.6946   65.4557 H       1  ZINC001461256440    0.0700
     45 H45        -5.3853    2.3079   67.9800 H       1  ZINC001461256440    0.1100
     46 H46        -5.2049    0.5916   67.5443 H       1  ZINC001461256440    0.1100
     47 H47        -0.9836    0.4829   65.5421 H       1  ZINC001461256440    0.0600
     48 H48        -0.0578    1.9860   65.3142 H       1  ZINC001461256440    0.0700
     49 H49        -1.0947    1.7879   66.7474 H       1  ZINC001461256440    0.0800
     50 H50        -2.8601    2.2893   62.8825 H       1  ZINC001461256440    0.0700
     51 H51        -1.0888    2.2788   63.0573 H       1  ZINC001461256440    0.0800
     52 H52        -2.0145    0.7756   63.2851 H       1  ZINC001461256440    0.0700
     53 H53        -2.2816    3.9126   66.1822 H       1  ZINC001461256440    0.0800
     54 H54        -1.2448    4.1107   64.7490 H       1  ZINC001461256440    0.0700
     55 H55        -3.0160    4.1212   64.5743 H       1  ZINC001461256440    0.0600
@<TRIPOS>BOND
     1     1     2    1
     2     1    27    1
     3     1    28    1
     4     1    29    1
     5     2     3    1
     6     2    30    1
     7     2    31    1
     8     3     4    1
     9     4     5    2
    10     4     6    1
    11     6     7    1
    12     6    32    1
    13     6    33    1
    14     7    12    1
    15     7     8    1
    16     8     9    2
    17     9    10    1
    18     9    11    1
    19    10    34    1
    20    10    35    1
    21    10    36    1
    22    11    12    2
    23    11    37    1
    24    12    13    1
    25    13    14   am
    26    13    38    1
    27    14    15    2
    28    14    16    1
    29    16    17    1
    30    16    39    1
    31    16    40    1
    32    17    18    1
    33    17    41    1
    34    17    42    1
    35    18    19    1
    36    18    43    1
    37    18    44    1
    38    19    20    1
    39    19    45    1
    40    19    46    1
    41    20    21    2
    42    20    22    1
    43    22    23    1
    44    23    24    1
    45    23    25    1
    46    23    26    1
    47    24    47    1
    48    24    48    1
    49    24    49    1
    50    25    50    1
    51    25    51    1
    52    25    52    1
    53    26    53    1
    54    26    54    1
    55    26    55    1
@<TRIPOS>SUBSTRUCTURE
     1 ZINC001461256440        1 TEMP              0 ****  ****    0 ROOT


##########                                Name:    ZINC001574157642
##########                DOCK_Rotatable_Bonds:                   9
##########                         Heavy_Atoms:                  28
##########                    Molecular_Weight:             387.445
##########                DOCK_Rotatable_Bonds:                   9
##########                       Formal_Charge:          -0.0400004
##########                     HBond_Acceptors:                  11
##########                        HBond_Donors:                   4
##########                         Heavy_Atoms:                  28
##########                          Grid_Score:          -36.530033
##########                     Grid_vdw_energy:          -33.789585
##########                      Grid_es_energy:           -2.740448
##########           Internal_energy_repulsive:           11.659007

@<TRIPOS>MOLECULE
ZINC001574157642
 53 55 1 0 0
SMALL
USER_CHARGES


@<TRIPOS>ATOM
      1 C1         -2.0194    5.0243   51.7306 C.3     1  ZINC001574157642   -0.1400
      2 C2         -2.8649    3.8175   51.3184 C.3     1  ZINC001574157642   -0.0900
      3 C3         -2.0402    2.9035   50.4100 C.3     1  ZINC001574157642   -0.1500
      4 C4         -3.2928    3.0441   52.5672 C.3     1  ZINC001574157642   -0.1300
      5 C5         -4.5798    3.6527   53.1280 C.3     1  ZINC001574157642    0.1300
      6 H6         -4.8190    4.5645   52.5808 H       1  ZINC001574157642    0.1100
      7 C7         -4.3846    3.9830   54.6091 C.3     1  ZINC001574157642    0.1100
      8 N8         -3.9963    2.7699   55.3329 N.pl3   1  ZINC001574157642   -0.7100
      9 C9         -3.3258    2.8691   56.5456 C.ar    1  ZINC001574157642    0.3700
     10 C10        -3.1368    4.1170   57.1371 C.ar    1  ZINC001574157642    0.0000
     11 N11        -2.5004    4.2120   58.2876 N.ar    1  ZINC001574157642   -0.3700
     12 C12        -2.0388    3.1166   58.8845 C.ar    1  ZINC001574157642    0.0800
     13 C13        -1.3227    3.2230   60.1799 C.2     1  ZINC001574157642    0.2300
     14 N14        -0.8245    2.2289   60.8883 N.2     1  ZINC001574157642   -0.2700
     15 N15        -0.2821    2.7304   61.9443 N.pl3   1  ZINC001574157642   -0.2300
     16 N16        -0.4209    4.0101   61.9277 N.2     1  ZINC001574157642   -0.0400
     17 N17        -1.0513    4.3493   60.8548 N.2     1  ZINC001574157642   -0.2600
     18 C18        -2.2282    1.8696   58.2935 C.ar    1  ZINC001574157642    0.1600
     19 N19        -2.8702    1.7750   57.1434 N.ar    1  ZINC001574157642   -0.5000
     20 N20        -5.6774    2.6934   52.9822 N.am    1  ZINC001574157642   -0.7300
     21 C21        -6.6000    2.8670   52.0151 C.2     1  ZINC001574157642    0.5200
     22 O22        -6.5225    3.8181   51.2667 O.2     1  ZINC001574157642   -0.5100
     23 C23        -7.7282    1.8793   51.8640 C.3     1  ZINC001574157642   -0.1300
     24 H24        -8.4742    2.2786   51.1769 H       1  ZINC001574157642    0.1100
     25 C25        -8.3733    1.6219   53.2310 C.3     1  ZINC001574157642   -0.1000
     26 C26        -9.6232    0.7633   53.0222 C.3     1  ZINC001574157642   -0.1400
     27 C27        -9.2948   -0.4134   52.1489 C.2     1  ZINC001574157642    0.5200
     28 O28       -10.0591   -1.3551   52.1433 O.2     1  ZINC001574157642   -0.5500
     29 N29        -8.2080   -0.4781   51.3788 N.am    1  ZINC001574157642   -0.7200
     30 C30        -7.1839    0.5582   51.3190 C.3     1  ZINC001574157642    0.1200
     31 H31        -1.1344    4.6818   52.2668 H       1  ZINC001574157642    0.0400
     32 H32        -1.7147    5.5753   50.8409 H       1  ZINC001574157642    0.0500
     33 H33        -2.6070    5.6756   52.3777 H       1  ZINC001574157642    0.0700
     34 H34        -3.7499    4.1601   50.7822 H       1  ZINC001574157642    0.0700
     35 H35        -1.1552    2.5609   50.9462 H       1  ZINC001574157642    0.0500
     36 H36        -2.6425    2.0437   50.1163 H       1  ZINC001574157642    0.0500
     37 H37        -1.7354    3.4545   49.5204 H       1  ZINC001574157642    0.0500
     38 H38        -3.4682    2.0005   52.3059 H       1  ZINC001574157642    0.0700
     39 H39        -2.5055    3.1032   53.3187 H       1  ZINC001574157642    0.0800
     40 H40        -3.6021    4.7346   54.7136 H       1  ZINC001574157642    0.0800
     41 H41        -5.3169    4.3693   55.0211 H       1  ZINC001574157642    0.0900
     42 H42        -4.2074    1.8973   54.9654 H       1  ZINC001574157642    0.4100
     43 H43        -3.5117    5.0064   56.6525 H       1  ZINC001574157642    0.1700
     44 H44         0.1607    2.2230   62.6424 H       1  ZINC001574157642    0.4800
     45 H45        -1.8533    0.9799   58.7776 H       1  ZINC001574157642    0.1800
     46 H46        -5.7401    1.9333   53.5815 H       1  ZINC001574157642    0.4000
     47 H47        -7.6696    1.0949   53.8755 H       1  ZINC001574157642    0.0800
     48 H48        -8.6521    2.5705   53.6897 H       1  ZINC001574157642    0.0900
     49 H49        -9.9841    0.4082   53.9875 H       1  ZINC001574157642    0.1100
     50 H50       -10.3987    1.3628   52.5454 H       1  ZINC001574157642    0.1000
     51 H51        -8.0920   -1.2633   50.8212 H       1  ZINC001574157642    0.4000
     52 H52        -6.8677    0.6929   50.2845 H       1  ZINC001574157642    0.0800
     53 H53        -6.3261    0.2520   51.9177 H       1  ZINC001574157642    0.0700
@<TRIPOS>BOND
     1     1     2    1
     2     1    31    1
     3     1    32    1
     4     1    33    1
     5     2     3    1
     6     2     4    1
     7     2    34    1
     8     3    35    1
     9     3    36    1
    10     3    37    1
    11     4     5    1
    12     4    38    1
    13     4    39    1
    14     5     6    1
    15     5     7    1
    16     5    20    1
    17     7     8    1
    18     7    40    1
    19     7    41    1
    20     8     9    1
    21     8    42    1
    22     9    19   ar
    23     9    10   ar
    24    10    11   ar
    25    10    43    1
    26    11    12   ar
    27    12    13    1
    28    12    18   ar
    29    13    17    1
    30    13    14    2
    31    14    15    1
    32    15    16    1
    33    15    44    1
    34    16    17    2
    35    18    19   ar
    36    18    45    1
    37    20    21   am
    38    20    46    1
    39    21    22    2
    40    21    23    1
    41    23    24    1
    42    23    30    1
    43    23    25    1
    44    25    26    1
    45    25    47    1
    46    25    48    1
    47    26    27    1
    48    26    49    1
    49    26    50    1
    50    27    28    2
    51    27    29   am
    52    29    30    1
    53    29    51    1
    54    30    52    1
    55    30    53    1
@<TRIPOS>SUBSTRUCTURE
     1 ZINC001574157642        1 TEMP              0 ****  ****    0 ROOT


##########                                Name:    ZINC000600609084
##########                DOCK_Rotatable_Bonds:                   8
##########                         Heavy_Atoms:                  30
##########                    Molecular_Weight:             422.548
##########                DOCK_Rotatable_Bonds:                   8
##########                       Formal_Charge:           0.0100005
##########                     HBond_Acceptors:                   6
##########                        HBond_Donors:                   2
##########                         Heavy_Atoms:                  30
##########                          Grid_Score:          -36.529919
##########                     Grid_vdw_energy:          -34.787308
##########                      Grid_es_energy:           -1.742610
##########           Internal_energy_repulsive:           18.076178

@<TRIPOS>MOLECULE
ZINC000600609084
 56 59 1 0 0
SMALL
USER_CHARGES


@<TRIPOS>ATOM
      1 O1         -0.1308    4.5250   50.7049 O.2     1  ZINC000600609084   -0.5300
      2 C2         -0.2322    3.6793   51.5684 C.2     1  ZINC000600609084    0.5200
      3 C3          1.0043    3.1192   52.2231 C.3     1  ZINC000600609084   -0.1500
      4 C4          1.8401    2.3735   51.1810 C.3     1  ZINC000600609084    0.1300
      5 N5          1.4485    0.9621   51.1599 N.am    1  ZINC000600609084   -1.1200
      6 S6          2.4730   -0.1721   50.5223 S.o2    1  ZINC000600609084    2.7000
      7 O7          3.7178   -0.0077   51.1876 O.2     1  ZINC000600609084   -0.9600
      8 O8          1.7552   -1.3984   50.5083 O.2     1  ZINC000600609084   -0.9500
      9 C9          2.7483    0.2624   48.8370 C.ar    1  ZINC000600609084   -0.6700
     10 C10         3.9711    0.8147   48.4616 C.ar    1  ZINC000600609084   -0.0400
     11 C11         4.2161    1.1614   47.1682 C.ar    1  ZINC000600609084   -0.1200
     12 C12         3.2232    0.9604   46.1946 C.ar    1  ZINC000600609084   -0.0100
     13 C13         3.4393    1.3052   44.8494 C.ar    1  ZINC000600609084   -0.1200
     14 C14         2.4545    1.0957   43.9339 C.ar    1  ZINC000600609084   -0.0900
     15 C15         1.2311    0.5432   44.3095 C.ar    1  ZINC000600609084   -0.1200
     16 C16         0.9860    0.1971   45.6026 C.ar    1  ZINC000600609084   -0.0900
     17 C17         1.9791    0.3984   46.5766 C.ar    1  ZINC000600609084   -0.0800
     18 C18         1.7650    0.0481   47.9202 C.ar    1  ZINC000600609084    0.0200
     19 N19        -1.4506    3.2446   51.9464 N.am    1  ZINC000600609084   -0.7200
     20 C20        -2.6524    3.7891   51.3098 C.3     1  ZINC000600609084    0.1400
     21 H21        -2.4296    4.7549   50.8563 H       1  ZINC000600609084    0.1000
     22 C22        -3.1714    2.8119   50.2404 C.3     1  ZINC000600609084   -0.1300
     23 C23        -4.5957    2.4041   50.6701 C.3     1  ZINC000600609084   -0.1300
     24 C24        -4.6148    2.6454   52.1999 C.3     1  ZINC000600609084   -0.1200
     25 C25        -3.7793    3.9422   52.3522 C.3     1  ZINC000600609084   -0.0700
     26 H26        -4.3895    4.8175   52.1295 H       1  ZINC000600609084    0.0900
     27 C27        -3.2064    4.0403   53.7427 C.ar    1  ZINC000600609084   -0.0600
     28 C28        -2.1886    4.9369   54.0092 C.ar    1  ZINC000600609084   -0.1100
     29 C29        -1.6630    5.0268   55.2845 C.ar    1  ZINC000600609084   -0.1200
     30 C30        -2.1557    4.2203   56.2935 C.ar    1  ZINC000600609084   -0.1200
     31 C31        -3.1740    3.3243   56.0271 C.ar    1  ZINC000600609084   -0.1200
     32 C32        -3.7025    3.2375   54.7527 C.ar    1  ZINC000600609084   -0.1100
     33 H33         1.5925    3.9339   52.6455 H       1  ZINC000600609084    0.1000
     34 H34         0.7148    2.4307   53.0170 H       1  ZINC000600609084    0.1000
     35 H35         1.6707    2.8124   50.1977 H       1  ZINC000600609084    0.0900
     36 H36         2.8965    2.4538   51.4374 H       1  ZINC000600609084    0.0800
     37 H37         0.5891    0.6917   51.5194 H       1  ZINC000600609084    0.4200
     38 H38         4.7359    0.9707   49.2080 H       1  ZINC000600609084    0.1400
     39 H39         5.1686    1.5890   46.8919 H       1  ZINC000600609084    0.1400
     40 H40         4.3821    1.7345   44.5438 H       1  ZINC000600609084    0.1300
     41 H41         2.6230    1.3619   42.9010 H       1  ZINC000600609084    0.1300
     42 H42         0.4662    0.3878   43.5631 H       1  ZINC000600609084    0.1300
     43 H43         0.0332   -0.2297   45.8791 H       1  ZINC000600609084    0.1300
     44 H44         0.8239   -0.3853   48.2249 H       1  ZINC000600609084    0.1500
     45 H45        -1.5317    2.5713   52.6398 H       1  ZINC000600609084    0.4000
     46 H46        -3.2010    3.3037   49.2682 H       1  ZINC000600609084    0.0800
     47 H47        -2.5288    1.9325   50.1950 H       1  ZINC000600609084    0.0700
     48 H48        -5.3376    3.0312   50.1757 H       1  ZINC000600609084    0.0700
     49 H49        -4.7748    1.3521   50.4475 H       1  ZINC000600609084    0.0700
     50 H50        -5.6341    2.7990   52.5541 H       1  ZINC000600609084    0.0700
     51 H51        -4.1421    1.8170   52.7275 H       1  ZINC000600609084    0.0700
     52 H52        -1.8038    5.5669   53.2210 H       1  ZINC000600609084    0.1200
     53 H53        -0.8674    5.7267   55.4926 H       1  ZINC000600609084    0.1200
     54 H54        -1.7445    4.2900   57.2897 H       1  ZINC000600609084    0.1200
     55 H55        -3.5585    2.6940   56.8153 H       1  ZINC000600609084    0.1200
     56 H56        -4.4981    2.5374   54.5447 H       1  ZINC000600609084    0.1200
@<TRIPOS>BOND
     1     1     2    2
     2     2     3    1
     3     2    19   am
     4     3     4    1
     5     3    33    1
     6     3    34    1
     7     4     5    1
     8     4    35    1
     9     4    36    1
    10     5     6   am
    11     5    37    1
    12     6     7    2
    13     6     8    2
    14     6     9    1
    15     9    18   ar
    16     9    10   ar
    17    10    11   ar
    18    10    38    1
    19    11    12   ar
    20    11    39    1
    21    12    17   ar
    22    12    13   ar
    23    13    14   ar
    24    13    40    1
    25    14    15   ar
    26    14    41    1
    27    15    16   ar
    28    15    42    1
    29    16    17   ar
    30    16    43    1
    31    17    18   ar
    32    18    44    1
    33    19    20    1
    34    19    45    1
    35    20    21    1
    36    20    25    1
    37    20    22    1
    38    22    23    1
    39    22    46    1
    40    22    47    1
    41    23    24    1
    42    23    48    1
    43    23    49    1
    44    24    25    1
    45    24    50    1
    46    24    51    1
    47    25    26    1
    48    25    27    1
    49    27    32   ar
    50    27    28   ar
    51    28    29   ar
    52    28    52    1
    53    29    30   ar
    54    29    53    1
    55    30    31   ar
    56    30    54    1
    57    31    32   ar
    58    31    55    1
    59    32    56    1
@<TRIPOS>SUBSTRUCTURE
     1 ZINC000600609084        1 TEMP              0 ****  ****    0 ROOT


##########                                Name:    ZINC000442010511
##########                DOCK_Rotatable_Bonds:                  11
##########                         Heavy_Atoms:                  31
##########                    Molecular_Weight:             422.481
##########                DOCK_Rotatable_Bonds:                  11
##########                       Formal_Charge:          -0.0200005
##########                     HBond_Acceptors:                   7
##########                        HBond_Donors:                   2
##########                         Heavy_Atoms:                  31
##########                          Grid_Score:          -36.367813
##########                     Grid_vdw_energy:          -35.127277
##########                      Grid_es_energy:           -1.240537
##########           Internal_energy_repulsive:           10.384786

@<TRIPOS>MOLECULE
ZINC000442010511
 57 59 1 0 0
SMALL
USER_CHARGES


@<TRIPOS>ATOM
      1 C1         -6.2303    4.2719   56.8464 C.3     1  ZINC000442010511   -0.1500
      2 C2         -6.6576    2.8056   56.7555 C.3     1  ZINC000442010511   -0.0500
      3 C3         -7.6272    2.4951   57.8666 C.2     1  ZINC000442010511    0.0000
      4 C4         -8.5719    3.3265   58.3415 C.2     1  ZINC000442010511   -0.2100
      5 C5         -9.2477    2.6328   59.3716 C.2     1  ZINC000442010511   -0.1900
      6 C6         -8.6755    1.4191   59.4645 C.2     1  ZINC000442010511   -0.0300
      7 C7         -9.0689    0.3309   60.4299 C.3     1  ZINC000442010511    0.2400
      8 H8         -8.1952   -0.2748   60.6705 H       1  ZINC000442010511    0.1400
      9 C9         -9.6214    0.9603   61.7104 C.3     1  ZINC000442010511    0.0500
     10 O10        -9.6858   -0.0301   62.7385 O.3     1  ZINC000442010511   -0.3800
     11 C11        -8.4363   -0.2777   63.3862 C.3     1  ZINC000442010511    0.0300
     12 N12       -10.0968   -0.5158   59.8192 N.am    1  ZINC000442010511   -0.6900
     13 C13        -9.8041   -1.7833   59.4669 C.2     1  ZINC000442010511    0.5200
     14 O14        -8.6886   -2.2229   59.6545 O.2     1  ZINC000442010511   -0.5100
     15 C15       -10.8523   -2.6468   58.8460 C.2     1  ZINC000442010511    0.5100
     16 O16       -10.7481   -3.8554   58.8914 O.2     1  ZINC000442010511   -0.5000
     17 N17       -11.9139   -2.0844   58.2353 N.am    1  ZINC000442010511   -0.6300
     18 C18       -12.8956   -2.8931   57.6537 C.ar    1  ZINC000442010511    0.1200
     19 C19       -14.0053   -3.2798   58.3915 C.ar    1  ZINC000442010511   -0.1000
     20 C20       -14.9740   -4.0791   57.8145 C.ar    1  ZINC000442010511   -0.1300
     21 C21       -14.8409   -4.4952   56.5027 C.ar    1  ZINC000442010511   -0.0900
     22 C22       -13.7379   -4.1146   55.7608 C.ar    1  ZINC000442010511   -0.1700
     23 C23       -12.7650   -3.3084   56.3291 C.ar    1  ZINC000442010511    0.1000
     24 O24       -11.6800   -2.9334   55.6011 O.3     1  ZINC000442010511   -0.2600
     25 C25       -11.8292   -1.9181   54.7106 C.ar    1  ZINC000442010511    0.0800
     26 C26       -12.1340   -2.1950   53.3855 C.ar    1  ZINC000442010511   -0.1300
     27 C27       -12.2855   -1.1610   52.4822 C.ar    1  ZINC000442010511   -0.1100
     28 C28       -12.1330    0.1491   52.8974 C.ar    1  ZINC000442010511   -0.0800
     29 C29       -12.2984    1.2752   51.9096 C.3     1  ZINC000442010511   -0.1200
     30 C30       -11.8297    0.4279   54.2173 C.ar    1  ZINC000442010511   -0.1100
     31 C31       -11.6823   -0.6023   55.1258 C.ar    1  ZINC000442010511   -0.1100
     32 O32        -7.6983    1.3392   58.5466 O.3     1  ZINC000442010511   -0.1600
     33 H33        -7.1072    4.9124   56.7530 H       1  ZINC000442010511    0.0600
     34 H34        -5.7502    4.4514   57.8084 H       1  ZINC000442010511    0.0600
     35 H35        -5.5290    4.4965   56.0428 H       1  ZINC000442010511    0.0700
     36 H36        -7.1377    2.6261   55.7935 H       1  ZINC000442010511    0.0900
     37 H37        -5.7806    2.1651   56.8489 H       1  ZINC000442010511    0.0800
     38 H38        -8.7750    4.3313   58.0016 H       1  ZINC000442010511    0.1500
     39 H39       -10.0660    3.0061   59.9694 H       1  ZINC000442010511    0.1500
     40 H40        -8.9668    1.7718   62.0281 H       1  ZINC000442010511    0.0700
     41 H41       -10.6206    1.3524   61.5205 H       1  ZINC000442010511    0.0700
     42 H42        -8.5694   -1.0409   64.1529 H       1  ZINC000442010511    0.0900
     43 H43        -7.7086   -0.6231   62.6520 H       1  ZINC000442010511    0.0400
     44 H44        -8.0779    0.6424   63.8480 H       1  ZINC000442010511    0.0400
     45 H45       -10.9880   -0.1639   59.6681 H       1  ZINC000442010511    0.4200
     46 H46       -11.9970   -1.1187   58.1990 H       1  ZINC000442010511    0.4300
     47 H47       -14.1119   -2.9566   59.4165 H       1  ZINC000442010511    0.1600
     48 H48       -15.8371   -4.3796   58.3899 H       1  ZINC000442010511    0.1300
     49 H49       -15.6006   -5.1197   56.0563 H       1  ZINC000442010511    0.1300
     50 H50       -13.6370   -4.4422   54.7367 H       1  ZINC000442010511    0.1300
     51 H51       -12.2525   -3.2182   53.0606 H       1  ZINC000442010511    0.1300
     52 H52       -12.5228   -1.3759   51.4508 H       1  ZINC000442010511    0.1300
     53 H53       -13.3408    1.5933   51.8924 H       1  ZINC000442010511    0.0700
     54 H54       -11.6675    2.1135   52.2053 H       1  ZINC000442010511    0.0700
     55 H55       -12.0064    0.9333   50.9166 H       1  ZINC000442010511    0.0700
     56 H56       -11.7111    1.4520   54.5389 H       1  ZINC000442010511    0.1300
     57 H57       -11.4456   -0.3840   56.1567 H       1  ZINC000442010511    0.1300
@<TRIPOS>BOND
     1     1     2    1
     2     1    33    1
     3     1    34    1
     4     1    35    1
     5     2     3    1
     6     2    36    1
     7     2    37    1
     8     3    32    1
     9     3     4    2
    10     4     5    1
    11     4    38    1
    12     5     6    2
    13     5    39    1
    14     6     7    1
    15     6    32    1
    16     7     8    1
    17     7     9    1
    18     7    12    1
    19     9    10    1
    20     9    40    1
    21     9    41    1
    22    10    11    1
    23    11    42    1
    24    11    43    1
    25    11    44    1
    26    12    13   am
    27    12    45    1
    28    13    14    2
    29    13    15    1
    30    15    16    2
    31    15    17   am
    32    17    18    1
    33    17    46    1
    34    18    23   ar
    35    18    19   ar
    36    19    20   ar
    37    19    47    1
    38    20    21   ar
    39    20    48    1
    40    21    22   ar
    41    21    49    1
    42    22    23   ar
    43    22    50    1
    44    23    24    1
    45    24    25    1
    46    25    31   ar
    47    25    26   ar
    48    26    27   ar
    49    26    51    1
    50    27    28   ar
    51    27    52    1
    52    28    29    1
    53    28    30   ar
    54    29    53    1
    55    29    54    1
    56    29    55    1
    57    30    31   ar
    58    30    56    1
    59    31    57    1
@<TRIPOS>SUBSTRUCTURE
     1 ZINC000442010511        1 TEMP              0 ****  ****    0 ROOT


##########                                Name:     oleObject14.pdb
##########                DOCK_Rotatable_Bonds:                   9
##########                         Heavy_Atoms:                  33
##########                    Molecular_Weight:             484.424
##########                DOCK_Rotatable_Bonds:                   9
##########                       Formal_Charge:         0.000299782
##########                     HBond_Acceptors:                   7
##########                        HBond_Donors:                   1
##########                         Heavy_Atoms:                  33
##########                          Grid_Score:          -36.304565
##########                     Grid_vdw_energy:          -35.858242
##########                      Grid_es_energy:           -0.446322
##########           Internal_energy_repulsive:            9.231673

@<TRIPOS>MOLECULE
oleObject14.pdb
 60 63 1 0 0
SMALL
NO_CHARGES


@<TRIPOS>ATOM
      1 C           0.2376    1.0515   41.5575 C.ar    1  UNL         0.0422
      2 C          -0.3475    0.7602   42.7998 C.ar    1  UNL        -0.0408
      3 C           0.4601    0.6021   43.9385 C.ar    1  UNL        -0.0288
      4 C           1.8617    0.7352   43.8391 C.ar    1  UNL         0.0937
      5 C           2.4408    1.0282   42.5874 C.ar    1  UNL         0.0723
      6 C           1.6307    1.1857   41.4505 C.ar    1  UNL        -0.0221
      7 CL          4.1778    1.2023   42.4191 Cl      1  UNL        -0.0814
      8 O           2.6910    0.5875   44.9343 O.3     1  UNL        -0.3432
      9 C           2.2382    0.6940   46.2956 C.3     1  UNL         0.0661
     10 C           3.3274    0.0851   47.2029 C.3     1  UNL         0.0222
     11 N           3.1769    0.4480   48.6296 N.4     1  UNL        -0.3010
     12 C           3.6333    1.8183   48.9606 C.3     1  UNL        -0.0010
     13 C           3.5577    2.0999   50.4778 C.3     1  UNL        -0.0289
     14 C           2.1547    1.8252   51.0711 C.3     1  UNL         0.0382
     15 C           1.6578    0.4241   50.6338 C.3     1  UNL        -0.0289
     16 C           1.8093    0.1651   49.1164 C.3     1  UNL        -0.0010
     17 C           1.1498    2.9461   50.7071 C.2     1  UNL         0.2156
     18 O           1.4315    3.8326   49.9216 O.2     1  UNL        -0.2774
     19 N          -0.1295    2.9294   51.2479 N.am    1  UNL        -0.3025
     20 C          -1.2157    3.9012   51.0213 C.3     1  UNL         0.0900
     21 C          -2.6055    3.2944   51.2047 C.ar    1  UNL        -0.0217
     22 C          -3.3524    2.8360   50.1007 C.ar    1  UNL        -0.0568
     23 C          -4.6334    2.2910   50.2861 C.ar    1  UNL        -0.0619
     24 C          -5.1770    2.1963   51.5768 C.ar    1  UNL        -0.0622
     25 C          -4.4370    2.6448   52.6821 C.ar    1  UNL        -0.0619
     26 C          -3.1561    3.1898   52.4963 C.ar    1  UNL        -0.0568
     27 C          -1.0507    5.1442   51.8905 C.ar    1  UNL         0.0652
     28 C          -0.4357    5.0860   53.1583 C.ar    1  UNL        -0.0383
     29 C          -0.3209    6.2630   53.9151 C.ar    1  UNL        -0.0588
     30 C          -0.8263    7.4575   53.3787 C.ar    1  UNL        -0.0438
     31 C          -1.4261    7.4261   52.1081 C.ar    1  UNL         0.0272
     32 N          -1.5373    6.2966   51.3799 N.ar    1  UNL        -0.2590
     33 CL         -0.7714    1.2479   40.1405 Cl      1  UNL        -0.0843
     34 H          -1.4258    0.6568   42.8818 H       1  UNL         0.0639
     35 H          -0.0137    0.3776   44.8886 H       1  UNL         0.0652
     36 H           2.0826    1.4112   40.4887 H       1  UNL         0.0655
     37 H           1.2941    0.1502   46.4198 H       1  UNL         0.0586
     38 H           2.0867    1.7473   46.5644 H       1  UNL         0.0586
     39 H           4.2999    0.4438   46.8410 H       1  UNL         0.0455
     40 H           3.3172   -1.0071   47.0918 H       1  UNL         0.0455
     41 H           3.0181    2.5528   48.4245 H       1  UNL         0.0431
     42 H           4.6729    1.9647   48.6456 H       1  UNL         0.0431
     43 H           3.8582    3.1354   50.6754 H       1  UNL         0.0288
     44 H           4.2892    1.4594   50.9875 H       1  UNL         0.0288
     45 H           2.2626    1.7810   52.1581 H       1  UNL         0.0402
     46 H           0.6110    0.2860   50.9331 H       1  UNL         0.0288
     47 H           2.2392   -0.3368   51.1706 H       1  UNL         0.0288
     48 H           1.0880    0.7837   48.5676 H       1  UNL         0.0431
     49 H           1.5545   -0.8840   48.9177 H       1  UNL         0.0431
     50 H          -0.3652    2.1042   51.7842 H       1  UNL         0.1504
     51 H          -1.1260    4.2372   49.9803 H       1  UNL         0.0624
     52 H          -2.9463    2.9095   49.0961 H       1  UNL         0.0626
     53 H          -5.2044    1.9436   49.4298 H       1  UNL         0.0623
     54 H          -6.1677    1.7743   51.7203 H       1  UNL         0.0623
     55 H          -4.8548    2.5690   53.6819 H       1  UNL         0.0623
     56 H          -2.5906    3.5322   53.3586 H       1  UNL         0.0626
     57 H          -0.0544    4.1478   53.5498 H       1  UNL         0.0643
     58 H           0.1483    6.2493   54.8946 H       1  UNL         0.0624
     59 H          -0.7561    8.3880   53.9343 H       1  UNL         0.0639
     60 H          -1.8303    8.3327   51.6595 H       1  UNL         0.0840
@<TRIPOS>BOND
     1     1     2   ar
     2     1     6   ar
     3     1    33    1
     4     2     3   ar
     5     2    34    1
     6     3     4   ar
     7     3    35    1
     8     4     5   ar
     9     4     8    1
    10     5     6   ar
    11     5     7    1
    12     6    36    1
    13     8     9    1
    14     9    10    1
    15     9    37    1
    16     9    38    1
    17    10    11    1
    18    10    39    1
    19    10    40    1
    20    11    12    1
    21    11    16    1
    22    12    13    1
    23    12    41    1
    24    12    42    1
    25    13    14    1
    26    13    43    1
    27    13    44    1
    28    14    15    1
    29    14    17    1
    30    14    45    1
    31    15    16    1
    32    15    46    1
    33    15    47    1
    34    16    48    1
    35    16    49    1
    36    17    18    2
    37    17    19   am
    38    19    20    1
    39    19    50    1
    40    20    21    1
    41    20    27    1
    42    20    51    1
    43    21    22   ar
    44    21    26   ar
    45    22    23   ar
    46    22    52    1
    47    23    24   ar
    48    23    53    1
    49    24    25   ar
    50    24    54    1
    51    25    26   ar
    52    25    55    1
    53    26    56    1
    54    27    28   ar
    55    27    32   ar
    56    28    29   ar
    57    28    57    1
    58    29    30   ar
    59    29    58    1
    60    30    31   ar
    61    30    59    1
    62    31    32   ar
    63    31    60    1
@<TRIPOS>SUBSTRUCTURE
     1 UNL         1 TEMP              0 ****  ****    0 ROOT


##########                                Name:    ZINC000434204837
##########                DOCK_Rotatable_Bonds:                   7
##########                         Heavy_Atoms:                  29
##########                    Molecular_Weight:             406.511
##########                DOCK_Rotatable_Bonds:                   7
##########                       Formal_Charge:          -0.0200002
##########                     HBond_Acceptors:                   8
##########                        HBond_Donors:                   0
##########                         Heavy_Atoms:                  29
##########                          Grid_Score:          -36.252701
##########                     Grid_vdw_energy:          -35.979221
##########                      Grid_es_energy:           -0.273479
##########           Internal_energy_repulsive:           14.220963

@<TRIPOS>MOLECULE
ZINC000434204837
 51 54 1 0 0
SMALL
USER_CHARGES


@<TRIPOS>ATOM
      1 C1         -7.8058    0.2748   52.5487 C.3     1  ZINC000434204837   -0.1300
      2 C2         -8.0419    1.4501   51.6354 C.ar    1  ZINC000434204837   -0.0700
      3 C3         -7.1948    1.6761   50.5670 C.ar    1  ZINC000434204837   -0.1200
      4 C4         -7.4115    2.7544   49.7291 C.ar    1  ZINC000434204837   -0.1100
      5 C5         -8.4753    3.6060   49.9598 C.ar    1  ZINC000434204837   -0.1300
      6 C6         -9.3232    3.3794   51.0281 C.ar    1  ZINC000434204837   -0.0900
      7 C7         -9.1092    2.2990   51.8631 C.ar    1  ZINC000434204837   -0.1000
      8 C8        -10.0333    2.0520   53.0276 C.3     1  ZINC000434204837    0.0100
      9 C9        -10.6685    0.6928   52.8854 C.2     1  ZINC000434204837    0.2000
     10 N10       -11.0534   -0.0951   53.8603 N.2     1  ZINC000434204837   -0.4600
     11 C11       -11.5574   -1.1900   53.2635 C.2     1  ZINC000434204837    0.1700
     12 C12       -12.1350   -2.3973   53.9561 C.3     1  ZINC000434204837   -0.0300
     13 S13       -13.5144   -1.8856   55.0104 S.3     1  ZINC000434204837    0.0900
     14 C14       -13.7795   -3.3760   55.9122 C.2     1  ZINC000434204837    0.2100
     15 N15       -14.5836   -4.3614   55.5756 N.2     1  ZINC000434204837   -0.3300
     16 N16       -14.5397   -5.2978   56.4533 N.2     1  ZINC000434204837   -0.0200
     17 N17       -13.7207   -4.9889   57.3995 N.2     1  ZINC000434204837   -0.0700
     18 N18       -13.1885   -3.7270   57.0821 N.pl3   1  ZINC000434204837   -0.3100
     19 C19       -12.2540   -2.9866   57.8201 C.ar    1  ZINC000434204837    0.1100
     20 C20       -10.9800   -3.4937   58.0372 C.ar    1  ZINC000434204837   -0.1100
     21 C21       -10.0614   -2.7619   58.7642 C.ar    1  ZINC000434204837   -0.0900
     22 C22       -10.4099   -1.5255   59.2759 C.ar    1  ZINC000434204837   -0.0600
     23 C23        -9.4053   -0.7296   60.0686 C.3     1  ZINC000434204837   -0.0600
     24 C24        -9.1927    0.6313   59.4024 C.3     1  ZINC000434204837   -0.1500
     25 C25        -9.9264   -0.5244   61.4925 C.3     1  ZINC000434204837   -0.1500
     26 C26       -11.6781   -1.0177   59.0614 C.ar    1  ZINC000434204837   -0.1000
     27 C27       -12.5990   -1.7425   58.3304 C.ar    1  ZINC000434204837   -0.0900
     28 N28       -11.4550   -1.0153   51.9799 N.2     1  ZINC000434204837   -0.3600
     29 O29       -10.9522    0.0626   51.7416 O.3     1  ZINC000434204837    0.0900
     30 H30        -8.3428   -0.5943   52.1687 H       1  ZINC000434204837    0.0800
     31 H31        -6.7391    0.0540   52.5883 H       1  ZINC000434204837    0.0700
     32 H32        -8.1647    0.5146   53.5496 H       1  ZINC000434204837    0.0700
     33 H33        -6.3635    1.0107   50.3867 H       1  ZINC000434204837    0.1300
     34 H34        -6.7491    2.9314   48.8947 H       1  ZINC000434204837    0.1200
     35 H35        -8.6442    4.4487   49.3057 H       1  ZINC000434204837    0.1300
     36 H36       -10.1543    4.0450   51.2085 H       1  ZINC000434204837    0.1300
     37 H37        -9.4654    2.0923   53.9571 H       1  ZINC000434204837    0.1200
     38 H38       -10.8104    2.8162   53.0432 H       1  ZINC000434204837    0.1200
     39 H39       -12.4917   -3.1079   53.2105 H       1  ZINC000434204837    0.1300
     40 H40       -11.3654   -2.8681   54.5677 H       1  ZINC000434204837    0.1400
     41 H41       -10.7075   -4.4597   57.6383 H       1  ZINC000434204837    0.1400
     42 H42        -9.0702   -3.1559   58.9333 H       1  ZINC000434204837    0.1400
     43 H43        -8.4591   -1.2695   60.1023 H       1  ZINC000434204837    0.0800
     44 H44       -10.1390    1.1711   59.3688 H       1  ZINC000434204837    0.0600
     45 H45        -8.4661    1.2070   59.9758 H       1  ZINC000434204837    0.0600
     46 H46        -8.8215    0.4851   58.3880 H       1  ZINC000434204837    0.0600
     47 H47       -10.0779   -1.4939   61.9672 H       1  ZINC000434204837    0.0600
     48 H48        -9.1998    0.0513   62.0659 H       1  ZINC000434204837    0.0600
     49 H49       -10.8726    0.0155   61.4588 H       1  ZINC000434204837    0.0600
     50 H50       -11.9474   -0.0519   59.4627 H       1  ZINC000434204837    0.1400
     51 H51       -13.5893   -1.3454   58.1632 H       1  ZINC000434204837    0.1400
@<TRIPOS>BOND
     1     1     2    1
     2     1    30    1
     3     1    31    1
     4     1    32    1
     5     2     7   ar
     6     2     3   ar
     7     3     4   ar
     8     3    33    1
     9     4     5   ar
    10     4    34    1
    11     5     6   ar
    12     5    35    1
    13     6     7   ar
    14     6    36    1
    15     7     8    1
    16     8     9    1
    17     8    37    1
    18     8    38    1
    19     9    29    1
    20     9    10    2
    21    10    11    1
    22    11    12    1
    23    11    28    2
    24    12    13    1
    25    12    39    1
    26    12    40    1
    27    13    14    1
    28    14    18    1
    29    14    15    2
    30    15    16    1
    31    16    17    2
    32    17    18    1
    33    18    19    1
    34    19    27   ar
    35    19    20   ar
    36    20    21   ar
    37    20    41    1
    38    21    22   ar
    39    21    42    1
    40    22    23    1
    41    22    26   ar
    42    23    24    1
    43    23    25    1
    44    23    43    1
    45    24    44    1
    46    24    45    1
    47    24    46    1
    48    25    47    1
    49    25    48    1
    50    25    49    1
    51    26    27   ar
    52    26    50    1
    53    27    51    1
    54    28    29    1
@<TRIPOS>SUBSTRUCTURE
     1 ZINC000434204837        1 TEMP              0 ****  ****    0 ROOT


##########                                Name:    ZINC000124554441
##########                DOCK_Rotatable_Bonds:                   9
##########                         Heavy_Atoms:                  26
##########                    Molecular_Weight:             375.898
##########                DOCK_Rotatable_Bonds:                   9
##########                       Formal_Charge:         -0.00999991
##########                     HBond_Acceptors:                   6
##########                        HBond_Donors:                   1
##########                         Heavy_Atoms:                  26
##########                          Grid_Score:          -36.244827
##########                     Grid_vdw_energy:          -34.604424
##########                      Grid_es_energy:           -1.640402
##########           Internal_energy_repulsive:           13.530997

@<TRIPOS>MOLECULE
ZINC000124554441
 52 53 1 0 0
SMALL
USER_CHARGES


@<TRIPOS>ATOM
      1 C1          1.0833    2.4477   60.6987 C.3     1  ZINC000124554441   -0.1500
      2 C2         -0.2256    2.4827   59.9072 C.3     1  ZINC000124554441   -0.1300
      3 C3          0.0845    2.4906   58.4090 C.3     1  ZINC000124554441   -0.1200
      4 C4         -1.0935    3.1018   57.6476 C.3     1  ZINC000124554441   -0.1200
      5 C5         -2.2058    2.0607   57.5077 C.3     1  ZINC000124554441   -0.1300
      6 C6         -3.4365    2.7113   56.8729 C.3     1  ZINC000124554441    0.1200
      7 N7         -3.2678    2.7597   55.4185 N.am    1  ZINC000124554441   -0.7300
      8 C8         -3.4289    3.9244   54.7596 C.2     1  ZINC000124554441    0.5200
      9 O9         -3.7150    4.9322   55.3708 O.2     1  ZINC000124554441   -0.5300
     10 C10        -3.2535    3.9745   53.2637 C.3     1  ZINC000124554441   -0.1200
     11 H11        -3.7658    4.8507   52.8665 H       1  ZINC000124554441    0.1000
     12 C12        -1.7630    4.0577   52.9267 C.3     1  ZINC000124554441   -0.1000
     13 C13        -1.5853    4.1417   51.4090 C.3     1  ZINC000124554441   -0.1400
     14 C14        -2.1576    2.8769   50.7611 C.3     1  ZINC000124554441    0.0900
     15 N15        -3.5508    2.7111   51.1973 N.am    1  ZINC000124554441   -0.6000
     16 C16        -4.5403    2.5644   50.2942 C.2     1  ZINC000124554441    0.5600
     17 O17        -4.2843    2.5685   49.1061 O.2     1  ZINC000124554441   -0.5200
     18 C18        -5.9381    2.3985   50.7490 C.ar    1  ZINC000124554441   -0.0900
     19 C19        -6.8442    3.4528   50.6188 C.ar    1  ZINC000124554441   -0.0900
     20 C20        -8.1458    3.2996   51.0418 C.ar    1  ZINC000124554441   -0.0600
     21 C21        -8.5604    2.0892   51.6018 C.ar    1  ZINC000124554441    0.0100
     22 C22        -9.9137    1.9297   52.0418 C.1     1  ZINC000124554441    0.2400
     23 N23       -10.9875    1.8032   52.3907 N.1     1  ZINC000124554441   -0.3800
     24 C24        -7.6534    1.0331   51.7325 C.ar    1  ZINC000124554441    0.0000
     25 Cl25       -8.1675   -0.4722   52.4280 Cl      1  ZINC000124554441   -0.0400
     26 C26        -6.3522    1.1859   51.3029 C.ar    1  ZINC000124554441   -0.0600
     27 C27        -3.8454    2.7082   52.6368 C.3     1  ZINC000124554441    0.1200
     28 H28         1.6413    1.5482   60.4384 H       1  ZINC000124554441    0.0500
     29 H29         1.6786    3.3277   60.4555 H       1  ZINC000124554441    0.0500
     30 H30         0.8624    2.4420   61.7661 H       1  ZINC000124554441    0.0500
     31 H31        -0.8210    1.6025   60.1504 H       1  ZINC000124554441    0.0600
     32 H32        -0.7837    3.3821   60.1675 H       1  ZINC000124554441    0.0600
     33 H33         0.9814    3.0825   58.2267 H       1  ZINC000124554441    0.0600
     34 H34         0.2476    1.4687   58.0663 H       1  ZINC000124554441    0.0600
     35 H35        -1.4711    3.9655   58.1950 H       1  ZINC000124554441    0.0700
     36 H36        -0.7627    3.4154   56.6575 H       1  ZINC000124554441    0.0700
     37 H37        -1.8604    1.2428   56.8753 H       1  ZINC000124554441    0.0700
     38 H38        -2.4669    1.6733   58.4925 H       1  ZINC000124554441    0.0700
     39 H39        -4.3232    2.1261   57.1165 H       1  ZINC000124554441    0.0700
     40 H40        -3.5521    3.7240   57.2591 H       1  ZINC000124554441    0.0700
     41 H41        -3.0401    1.9534   54.9295 H       1  ZINC000124554441    0.4000
     42 H42        -1.3345    4.9453   53.3922 H       1  ZINC000124554441    0.0800
     43 H43        -1.2554    3.1696   53.3031 H       1  ZINC000124554441    0.0800
     44 H44        -2.1134    5.0162   51.0288 H       1  ZINC000124554441    0.0700
     45 H45        -0.5249    4.2245   51.1709 H       1  ZINC000124554441    0.0900
     46 H46        -2.1237    2.9749   49.6760 H       1  ZINC000124554441    0.1000
     47 H47        -1.5723    2.0111   51.0705 H       1  ZINC000124554441    0.0800
     48 H48        -6.5239    4.3893   50.1864 H       1  ZINC000124554441    0.1500
     49 H49        -8.8460    4.1156   50.9407 H       1  ZINC000124554441    0.1500
     50 H50        -5.6511    0.3706   51.4034 H       1  ZINC000124554441    0.1500
     51 H51        -3.3978    1.8287   53.0997 H       1  ZINC000124554441    0.0800
     52 H52        -4.9247    2.6944   52.7889 H       1  ZINC000124554441    0.1000
@<TRIPOS>BOND
     1     1     2    1
     2     1    28    1
     3     1    29    1
     4     1    30    1
     5     2     3    1
     6     2    31    1
     7     2    32    1
     8     3     4    1
     9     3    33    1
    10     3    34    1
    11     4     5    1
    12     4    35    1
    13     4    36    1
    14     5     6    1
    15     5    37    1
    16     5    38    1
    17     6     7    1
    18     6    39    1
    19     6    40    1
    20     7     8   am
    21     7    41    1
    22     8     9    2
    23     8    10    1
    24    10    11    1
    25    10    27    1
    26    10    12    1
    27    12    13    1
    28    12    42    1
    29    12    43    1
    30    13    14    1
    31    13    44    1
    32    13    45    1
    33    14    15    1
    34    14    46    1
    35    14    47    1
    36    15    16   am
    37    15    27    1
    38    16    17    2
    39    16    18    1
    40    18    26   ar
    41    18    19   ar
    42    19    20   ar
    43    19    48    1
    44    20    21   ar
    45    20    49    1
    46    21    22    1
    47    21    24   ar
    48    22    23    3
    49    24    25    1
    50    24    26   ar
    51    26    50    1
    52    27    51    1
    53    27    52    1
@<TRIPOS>SUBSTRUCTURE
     1 ZINC000124554441        1 TEMP              0 ****  ****    0 ROOT


##########                                Name:    ZINC000859496582
##########                DOCK_Rotatable_Bonds:                  10
##########                         Heavy_Atoms:                  26
##########                    Molecular_Weight:             361.438
##########                DOCK_Rotatable_Bonds:                  10
##########                       Formal_Charge:           0.0100006
##########                     HBond_Acceptors:                   6
##########                        HBond_Donors:                   0
##########                         Heavy_Atoms:                  26
##########                          Grid_Score:          -36.204121
##########                     Grid_vdw_energy:          -34.798618
##########                      Grid_es_energy:           -1.405502
##########           Internal_energy_repulsive:           12.023808

@<TRIPOS>MOLECULE
ZINC000859496582
 53 54 1 0 0
SMALL
USER_CHARGES


@<TRIPOS>ATOM
      1 C1         -0.3825   -0.2783   60.9313 C.3     1  ZINC000859496582    0.0300
      2 O2         -0.2882    1.0803   60.4276 O.3     1  ZINC000859496582   -0.3600
      3 C3         -1.0967    1.9947   60.9860 C.2     1  ZINC000859496582    0.4600
      4 O4         -1.7279    1.7174   61.9784 O.2     1  ZINC000859496582   -0.5100
      5 C5         -1.2174    3.3671   60.3753 C.3     1  ZINC000859496582   -0.1100
      6 C6         -1.0578    3.2655   58.8570 C.3     1  ZINC000859496582   -0.1100
      7 C7         -2.3130    2.6321   58.2535 C.3     1  ZINC000859496582   -0.1200
      8 C8         -2.2449    2.7192   56.7275 C.3     1  ZINC000859496582    0.0700
      9 O9         -3.5890    2.6780   56.1798 O.3     1  ZINC000859496582   -0.3500
     10 C10        -3.8780    3.5570   55.2074 C.2     1  ZINC000859496582    0.4700
     11 O11        -4.4443    4.5900   55.4755 O.2     1  ZINC000859496582   -0.5000
     12 C12        -3.4959    3.2552   53.7811 C.3     1  ZINC000859496582   -0.1000
     13 H13        -3.2733    2.1929   53.6811 H       1  ZINC000859496582    0.1200
     14 C14        -2.2607    4.0741   53.3991 C.3     1  ZINC000859496582   -0.1100
     15 C15        -1.8522    3.7439   51.9617 C.3     1  ZINC000859496582   -0.1300
     16 C16        -2.9939    4.1192   51.0117 C.3     1  ZINC000859496582    0.1100
     17 N17        -4.2217    3.4479   51.4594 N.am    1  ZINC000859496582   -0.6100
     18 C18        -4.9359    2.6841   50.6091 C.2     1  ZINC000859496582    0.5700
     19 O19        -4.5659    2.5455   49.4596 O.2     1  ZINC000859496582   -0.5300
     20 C20        -6.1693    2.0149   51.0746 C.ar    1  ZINC000859496582   -0.1400
     21 C21        -7.3844    2.7018   51.0687 C.ar    1  ZINC000859496582   -0.0900
     22 C22        -8.5317    2.0713   51.5039 C.ar    1  ZINC000859496582   -0.1200
     23 C23        -8.4797    0.7613   51.9459 C.ar    1  ZINC000859496582   -0.0600
     24 C24        -9.7369    0.0791   52.4203 C.3     1  ZINC000859496582   -0.1200
     25 C25        -7.2785    0.0746   51.9538 C.ar    1  ZINC000859496582   -0.1200
     26 C26        -6.1249    0.6917   51.5163 C.ar    1  ZINC000859496582   -0.0600
     27 C27        -4.6564    3.6243   52.8519 C.3     1  ZINC000859496582    0.1100
     28 H28        -1.3953   -0.6521   60.7810 H       1  ZINC000859496582    0.0600
     29 H29         0.3228   -0.9141   60.3960 H       1  ZINC000859496582    0.1000
     30 H30        -0.1455   -0.2886   61.9952 H       1  ZINC000859496582    0.0600
     31 H31        -2.1963    3.7846   60.6105 H       1  ZINC000859496582    0.1100
     32 H32        -0.4395    4.0146   60.7799 H       1  ZINC000859496582    0.1100
     33 H33        -0.9168    4.2621   58.4390 H       1  ZINC000859496582    0.0800
     34 H34        -0.1908    2.6474   58.6234 H       1  ZINC000859496582    0.0800
     35 H35        -2.3735    1.5865   58.5554 H       1  ZINC000859496582    0.0800
     36 H36        -3.1953    3.1645   58.6088 H       1  ZINC000859496582    0.0800
     37 H37        -1.7631    3.6531   56.4379 H       1  ZINC000859496582    0.0700
     38 H38        -1.6691    1.8782   56.3410 H       1  ZINC000859496582    0.0700
     39 H39        -2.4912    5.1367   53.4762 H       1  ZINC000859496582    0.0800
     40 H40        -1.4405    3.8308   54.0746 H       1  ZINC000859496582    0.0800
     41 H41        -0.9587    4.3099   51.6983 H       1  ZINC000859496582    0.0900
     42 H42        -1.6453    2.6769   51.8782 H       1  ZINC000859496582    0.0700
     43 H43        -3.1415    5.1990   51.0266 H       1  ZINC000859496582    0.0700
     44 H44        -2.7487    3.7958   50.0000 H       1  ZINC000859496582    0.1000
     45 H45        -7.4262    3.7247   50.7246 H       1  ZINC000859496582    0.1300
     46 H46        -9.4725    2.6017   51.4999 H       1  ZINC000859496582    0.1300
     47 H47       -10.2219   -0.4151   51.5786 H       1  ZINC000859496582    0.0800
     48 H48        -9.4844   -0.6608   53.1797 H       1  ZINC000859496582    0.0700
     49 H49       -10.4138    0.8200   52.8458 H       1  ZINC000859496582    0.0700
     50 H50        -7.2448   -0.9480   52.2997 H       1  ZINC000859496582    0.1300
     51 H51        -5.1879    0.1544   51.5226 H       1  ZINC000859496582    0.1300
     52 H52        -5.5081    2.9746   53.0538 H       1  ZINC000859496582    0.1100
     53 H53        -4.9397    4.6637   53.0174 H       1  ZINC000859496582    0.0800
@<TRIPOS>BOND
     1     1     2    1
     2     1    28    1
     3     1    29    1
     4     1    30    1
     5     2     3    1
     6     3     4    2
     7     3     5    1
     8     5     6    1
     9     5    31    1
    10     5    32    1
    11     6     7    1
    12     6    33    1
    13     6    34    1
    14     7     8    1
    15     7    35    1
    16     7    36    1
    17     8     9    1
    18     8    37    1
    19     8    38    1
    20     9    10    1
    21    10    11    2
    22    10    12    1
    23    12    13    1
    24    12    27    1
    25    12    14    1
    26    14    15    1
    27    14    39    1
    28    14    40    1
    29    15    16    1
    30    15    41    1
    31    15    42    1
    32    16    17    1
    33    16    43    1
    34    16    44    1
    35    17    18   am
    36    17    27    1
    37    18    19    2
    38    18    20    1
    39    20    26   ar
    40    20    21   ar
    41    21    22   ar
    42    21    45    1
    43    22    23   ar
    44    22    46    1
    45    23    24    1
    46    23    25   ar
    47    24    47    1
    48    24    48    1
    49    24    49    1
    50    25    26   ar
    51    25    50    1
    52    26    51    1
    53    27    52    1
    54    27    53    1
@<TRIPOS>SUBSTRUCTURE
     1 ZINC000859496582        1 TEMP              0 ****  ****    0 ROOT


##########                                Name:     oleObject70.pdb
##########                DOCK_Rotatable_Bonds:                   9
##########                         Heavy_Atoms:                  35
##########                    Molecular_Weight:             504.458
##########                DOCK_Rotatable_Bonds:                   9
##########                       Formal_Charge:          0.00010002
##########                     HBond_Acceptors:                   6
##########                        HBond_Donors:                   2
##########                         Heavy_Atoms:                  35
##########                          Grid_Score:          -36.163414
##########                     Grid_vdw_energy:          -36.375881
##########                      Grid_es_energy:            0.212468
##########           Internal_energy_repulsive:           82.362793

@<TRIPOS>MOLECULE
oleObject70.pdb
 62 65 1 0 0
SMALL
NO_CHARGES


@<TRIPOS>ATOM
      1 C           3.2595    1.3929   47.0745 C.ar    1  UNL        -0.0620
      2 C           2.9547    2.6094   47.7015 C.ar    1  UNL        -0.0590
      3 C           2.3465    2.6324   48.9716 C.ar    1  UNL        -0.0456
      4 C           2.0474    1.4123   49.6300 C.ar    1  UNL        -0.0187
      5 C           2.3470    0.1960   48.9785 C.ar    1  UNL        -0.0565
      6 C           2.9506    0.1848   47.7124 C.ar    1  UNL        -0.0619
      7 C           1.3831    1.3979   51.0184 C.3     1  UNL         0.0909
      8 C           2.2729    1.9559   52.1427 C.ar    1  UNL         0.0681
      9 C           3.6873    1.8683   52.0891 C.ar    1  UNL        -0.0272
     10 C           4.4321    2.3986   53.1596 C.ar    1  UNL        -0.0559
     11 C           3.7565    2.9955   54.2336 C.ar    1  UNL        -0.0435
     12 C           2.3553    3.0456   54.2012 C.ar    1  UNL         0.0272
     13 N           1.6344    2.5419   53.1824 N.ar    1  UNL        -0.2587
     14 C           4.4208    1.2181   50.9212 C.3     1  UNL        -0.0379
     15 N           0.0026    1.9300   50.9996 N.am    1  UNL        -0.2987
     16 C          -0.4075    3.1883   51.4224 C.2     1  UNL         0.2437
     17 O           0.3681    4.0197   51.8621 O.2     1  UNL        -0.2719
     18 C          -1.8826    3.4864   51.2970 C.ar    1  UNL         0.0371
     19 C          -2.4715    4.6280   51.8859 C.ar    1  UNL        -0.0494
     20 C          -3.8473    4.8755   51.7479 C.ar    1  UNL        -0.0570
     21 C          -4.6607    3.9903   51.0214 C.ar    1  UNL        -0.0341
     22 C          -4.0832    2.8542   50.4308 C.ar    1  UNL        -0.0570
     23 C          -2.7081    2.6049   50.5686 C.ar    1  UNL        -0.0494
     24 C          -6.1473    4.2650   50.8682 C.3     1  UNL         0.0208
     25 N          -6.9245    3.0193   50.8746 N.4     1  UNL        -0.3086
     26 C          -7.1758    2.4842   52.2193 C.3     1  UNL         0.0223
     27 C          -8.3649    1.5330   52.2284 C.ar    1  UNL        -0.0154
     28 C          -8.1413    0.1482   52.1059 C.ar    1  UNL        -0.0548
     29 C          -9.2194   -0.7518   52.1160 C.ar    1  UNL        -0.0431
     30 C         -10.5313   -0.2716   52.2506 C.ar    1  UNL         0.0421
     31 C         -10.7653    1.1067   52.3767 C.ar    1  UNL        -0.0245
     32 C          -9.6875    2.0083   52.3667 C.ar    1  UNL         0.0465
     33 CL        -10.0305    3.7204   52.5364 Cl      1  UNL        -0.0839
     34 CL        -11.8761   -1.3924   52.2643 Cl      1  UNL        -0.0843
     35 C           2.0126    3.9854   49.5924 C.3     1  UNL        -0.0394
     36 H           3.7244    1.3871   46.0929 H       1  UNL         0.0623
     37 H           3.1880    3.5401   47.1919 H       1  UNL         0.0626
     38 H           2.1034   -0.7524   49.4456 H       1  UNL         0.0627
     39 H           3.1733   -0.7602   47.2254 H       1  UNL         0.0623
     40 H           1.2395    0.3417   51.2651 H       1  UNL         0.0624
     41 H           5.5171    2.3477   53.1613 H       1  UNL         0.0627
     42 H           4.3059    3.4105   55.0733 H       1  UNL         0.0639
     43 H           1.7916    3.5001   55.0148 H       1  UNL         0.0840
     44 H           4.1956    0.1465   50.8605 H       1  UNL         0.0280
     45 H           5.5086    1.3169   51.0235 H       1  UNL         0.0280
     46 H           4.1414    1.6816   49.9673 H       1  UNL         0.0280
     47 H          -0.7167    1.3125   50.6498 H       1  UNL         0.1508
     48 H          -1.8761    5.3348   52.4547 H       1  UNL         0.0631
     49 H          -4.2823    5.7606   52.2041 H       1  UNL         0.0626
     50 H          -4.6993    2.1638   49.8614 H       1  UNL         0.0626
     51 H          -2.2849    1.7197   50.1018 H       1  UNL         0.0631
     52 H          -6.3183    4.8049   49.9278 H       1  UNL         0.0479
     53 H          -6.4801    4.9141   51.6886 H       1  UNL         0.0479
     54 H          -6.4320    2.3167   50.3233 H       1  UNL         0.1229
     55 H          -7.3698    3.3128   52.9126 H       1  UNL         0.0480
     56 H          -6.2854    1.9570   52.5854 H       1  UNL         0.0480
     57 H          -7.1285   -0.2323   52.0060 H       1  UNL         0.0627
     58 H          -9.0370   -1.8185   52.0214 H       1  UNL         0.0639
     59 H         -11.7812    1.4761   52.4840 H       1  UNL         0.0654
     60 H           2.1752    4.8079   48.8845 H       1  UNL         0.0280
     61 H           2.6391    4.1810   50.4714 H       1  UNL         0.0280
     62 H           0.9616    4.0309   49.9040 H       1  UNL         0.0280
@<TRIPOS>BOND
     1     1     2   ar
     2     1     6   ar
     3     1    36    1
     4     2     3   ar
     5     2    37    1
     6     3     4   ar
     7     3    35    1
     8     4     5   ar
     9     4     7    1
    10     5     6   ar
    11     5    38    1
    12     6    39    1
    13     7     8    1
    14     7    15    1
    15     7    40    1
    16     8     9   ar
    17     8    13   ar
    18     9    10   ar
    19     9    14    1
    20    10    11   ar
    21    10    41    1
    22    11    12   ar
    23    11    42    1
    24    12    13   ar
    25    12    43    1
    26    14    44    1
    27    14    45    1
    28    14    46    1
    29    15    16   am
    30    15    47    1
    31    16    17    2
    32    16    18    1
    33    18    19   ar
    34    18    23   ar
    35    19    20   ar
    36    19    48    1
    37    20    21   ar
    38    20    49    1
    39    21    22   ar
    40    21    24    1
    41    22    23   ar
    42    22    50    1
    43    23    51    1
    44    24    25    1
    45    24    52    1
    46    24    53    1
    47    25    26    1
    48    25    54    1
    49    26    27    1
    50    26    55    1
    51    26    56    1
    52    27    28   ar
    53    27    32   ar
    54    28    29   ar
    55    28    57    1
    56    29    30   ar
    57    29    58    1
    58    30    31   ar
    59    30    34    1
    60    31    32   ar
    61    31    59    1
    62    32    33    1
    63    35    60    1
    64    35    61    1
    65    35    62    1
@<TRIPOS>SUBSTRUCTURE
     1 UNL         1 TEMP              0 ****  ****    0 ROOT


##########                                Name:    ZINC000489986384
##########                DOCK_Rotatable_Bonds:                  11
##########                         Heavy_Atoms:                  31
##########                    Molecular_Weight:             415.492
##########                DOCK_Rotatable_Bonds:                  11
##########                       Formal_Charge:          -0.0499997
##########                     HBond_Acceptors:                   6
##########                        HBond_Donors:                   2
##########                         Heavy_Atoms:                  31
##########                          Grid_Score:          -36.063686
##########                     Grid_vdw_energy:          -33.540249
##########                      Grid_es_energy:           -2.523439
##########           Internal_energy_repulsive:            9.144156

@<TRIPOS>MOLECULE
ZINC000489986384
 56 59 1 0 0
SMALL
USER_CHARGES


@<TRIPOS>ATOM
      1 O1         -7.7625    0.7389   57.9920 O.2     1  ZINC000489986384   -0.5000
      2 C2         -8.8541    1.1903   57.7172 C.2     1  ZINC000489986384    0.4900
      3 C3        -10.0410    0.8767   58.5912 C.3     1  ZINC000489986384    0.0900
      4 N4        -10.3286   -0.5584   58.5277 N.pl3   1  ZINC000489986384   -0.4700
      5 C5        -11.0695   -1.2022   57.5568 C.ar    1  ZINC000489986384    0.0700
      6 C6        -11.7392   -0.7835   56.4156 C.ar    1  ZINC000489986384   -0.1100
      7 C7        -12.4042   -1.7067   55.6364 C.ar    1  ZINC000489986384   -0.0900
      8 C8        -12.4080   -3.0493   55.9862 C.ar    1  ZINC000489986384   -0.1300
      9 C9        -11.7546   -3.4796   57.1063 C.ar    1  ZINC000489986384   -0.0600
     10 C10       -11.0734   -2.5624   57.9104 C.ar    1  ZINC000489986384    0.0500
     11 N11       -10.3506   -2.6756   59.0543 N.2     1  ZINC000489986384   -0.4600
     12 C12        -9.9101   -1.5045   59.4111 C.2     1  ZINC000489986384    0.2800
     13 C13        -9.0686   -1.2338   60.6316 C.3     1  ZINC000489986384    0.1400
     14 O14        -9.9143   -1.1219   61.7781 O.3     1  ZINC000489986384   -0.3000
     15 C15        -9.5519   -0.2183   62.7262 C.ar    1  ZINC000489986384    0.1300
     16 C16       -10.4957    0.6498   63.2555 C.ar    1  ZINC000489986384   -0.2100
     17 C17       -10.1248    1.5671   64.2196 C.ar    1  ZINC000489986384   -0.0800
     18 C18        -8.8142    1.6208   64.6566 C.ar    1  ZINC000489986384   -0.1600
     19 C19        -7.8716    0.7571   64.1304 C.ar    1  ZINC000489986384   -0.0800
     20 C20        -8.2387   -0.1663   63.1705 C.ar    1  ZINC000489986384   -0.1500
     21 N21        -9.0047    1.9770   56.6332 N.am    1  ZINC000489986384   -0.7300
     22 C22        -7.8509    2.2819   55.7835 C.3     1  ZINC000489986384    0.1300
     23 C23        -8.3379    2.8084   54.4320 C.3     1  ZINC000489986384   -0.0600
     24 H24        -9.1276    3.5427   54.5912 H       1  ZINC000489986384    0.0900
     25 C25        -7.1721    3.4659   53.6908 C.3     1  ZINC000489986384    0.0800
     26 O26        -7.0470    4.8260   54.1108 O.3     1  ZINC000489986384   -0.5700
     27 C27        -8.8740    1.6641   53.6108 C.ar    1  ZINC000489986384   -0.0700
     28 C28        -8.0068    0.8660   52.8884 C.ar    1  ZINC000489986384   -0.1100
     29 C29        -8.4985   -0.1836   52.1351 C.ar    1  ZINC000489986384   -0.1200
     30 C30        -9.8574   -0.4352   52.1045 C.ar    1  ZINC000489986384   -0.1200
     31 C31       -10.7246    0.3624   52.8275 C.ar    1  ZINC000489986384   -0.1200
     32 C32       -10.2324    1.4093   53.5842 C.ar    1  ZINC000489986384   -0.1100
     33 H33        -9.8184    1.1573   59.6208 H       1  ZINC000489986384    0.1200
     34 H34       -10.9081    1.4368   58.2414 H       1  ZINC000489986384    0.1200
     35 H35       -11.7399    0.2605   56.1392 H       1  ZINC000489986384    0.1200
     36 H36       -12.9257   -1.3824   54.7482 H       1  ZINC000489986384    0.1300
     37 H37       -12.9332   -3.7614   55.3669 H       1  ZINC000489986384    0.1300
     38 H38       -11.7647   -4.5269   57.3697 H       1  ZINC000489986384    0.1300
     39 H39        -8.3655   -2.0538   60.7773 H       1  ZINC000489986384    0.0800
     40 H40        -8.5180   -0.3032   60.4942 H       1  ZINC000489986384    0.1000
     41 H41       -11.5194    0.6087   62.9139 H       1  ZINC000489986384    0.1300
     42 H42       -10.8592    2.2432   64.6319 H       1  ZINC000489986384    0.1300
     43 H43        -8.5263    2.3390   65.4102 H       1  ZINC000489986384    0.1200
     44 H44        -6.8483    0.8011   64.4732 H       1  ZINC000489986384    0.1300
     45 H45        -7.5020   -0.8408   62.7599 H       1  ZINC000489986384    0.1300
     46 H46        -9.8771    2.3412   56.4157 H       1  ZINC000489986384    0.4000
     47 H47        -7.2334    3.0388   56.2671 H       1  ZINC000489986384    0.0800
     48 H48        -7.2631    1.3769   55.6304 H       1  ZINC000489986384    0.0800
     49 H49        -6.2500    2.9300   53.9156 H       1  ZINC000489986384    0.0500
     50 H50        -7.3590    3.4328   52.6175 H       1  ZINC000489986384    0.0500
     51 H51        -6.8899    4.9320   55.0591 H       1  ZINC000489986384    0.3800
     52 H52        -6.9451    1.0626   52.9124 H       1  ZINC000489986384    0.1200
     53 H53        -7.8211   -0.8067   51.5702 H       1  ZINC000489986384    0.1200
     54 H54       -10.2417   -1.2548   51.5154 H       1  ZINC000489986384    0.1200
     55 H55       -11.7862    0.1659   52.8033 H       1  ZINC000489986384    0.1200
     56 H56       -10.9099    2.0325   54.1492 H       1  ZINC000489986384    0.1200
@<TRIPOS>BOND
     1     1     2    2
     2     2     3    1
     3     2    21   am
     4     3     4    1
     5     3    33    1
     6     3    34    1
     7     4    12    1
     8     4     5    1
     9     5    10   ar
    10     5     6   ar
    11     6     7   ar
    12     6    35    1
    13     7     8   ar
    14     7    36    1
    15     8     9   ar
    16     8    37    1
    17     9    10   ar
    18     9    38    1
    19    10    11    1
    20    11    12    2
    21    12    13    1
    22    13    14    1
    23    13    39    1
    24    13    40    1
    25    14    15    1
    26    15    20   ar
    27    15    16   ar
    28    16    17   ar
    29    16    41    1
    30    17    18   ar
    31    17    42    1
    32    18    19   ar
    33    18    43    1
    34    19    20   ar
    35    19    44    1
    36    20    45    1
    37    21    22    1
    38    21    46    1
    39    22    23    1
    40    22    47    1
    41    22    48    1
    42    23    24    1
    43    23    25    1
    44    23    27    1
    45    25    26    1
    46    25    49    1
    47    25    50    1
    48    26    51    1
    49    27    32   ar
    50    27    28   ar
    51    28    29   ar
    52    28    52    1
    53    29    30   ar
    54    29    53    1
    55    30    31   ar
    56    30    54    1
    57    31    32   ar
    58    31    55    1
    59    32    56    1
@<TRIPOS>SUBSTRUCTURE
     1 ZINC000489986384        1 TEMP              0 ****  ****    0 ROOT


##########                                Name:    ZINC000464139057
##########                DOCK_Rotatable_Bonds:                   9
##########                         Heavy_Atoms:                  30
##########                    Molecular_Weight:              413.56
##########                DOCK_Rotatable_Bonds:                   9
##########                       Formal_Charge:         2.38419e-07
##########                     HBond_Acceptors:                   6
##########                        HBond_Donors:                   2
##########                         Heavy_Atoms:                  30
##########                          Grid_Score:          -35.969006
##########                     Grid_vdw_energy:          -34.933903
##########                      Grid_es_energy:           -1.035103
##########           Internal_energy_repulsive:           15.088287

@<TRIPOS>MOLECULE
ZINC000464139057
 65 67 1 0 0
SMALL
USER_CHARGES


@<TRIPOS>ATOM
      1 C1        -13.1439   -1.5370   54.8158 C.3     1  ZINC000464139057   -0.1800
      2 C2        -12.2608   -2.7862   54.8348 C.3     1  ZINC000464139057    0.0700
      3 H3        -11.6153   -2.7892   53.9565 H       1  ZINC000464139057    0.1200
      4 C4        -11.3996   -2.7851   56.1031 C.3     1  ZINC000464139057    0.0800
      5 N5        -12.2841   -2.9687   57.2648 N.am    1  ZINC000464139057   -0.6100
      6 C6        -12.2173   -2.1397   58.3253 C.2     1  ZINC000464139057    0.5600
      7 O7        -12.9563   -2.3077   59.2755 O.2     1  ZINC000464139057   -0.5300
      8 C8        -11.2450   -1.0259   58.3329 C.ar    1  ZINC000464139057   -0.1200
      9 C9         -9.9489   -1.2301   58.8091 C.ar    1  ZINC000464139057   -0.0900
     10 C10        -9.0464   -0.1868   58.8130 C.ar    1  ZINC000464139057   -0.1000
     11 C11        -9.4237    1.0600   58.3468 C.ar    1  ZINC000464139057   -0.0900
     12 C12        -8.4326    2.1953   58.3546 C.3     1  ZINC000464139057    0.1800
     13 N13        -7.4194    1.9660   57.3217 N.am    1  ZINC000464139057   -0.7400
     14 C14        -6.7382    3.0069   56.8032 C.2     1  ZINC000464139057    0.7000
     15 O15        -6.9635    4.1360   57.1937 O.2     1  ZINC000464139057   -0.5900
     16 N16        -5.8071    2.7962   55.8517 N.am    1  ZINC000464139057   -0.7500
     17 C17        -5.0679    3.9278   55.2868 C.3     1  ZINC000464139057    0.1400
     18 C18        -4.5813    3.5686   53.8814 C.3     1  ZINC000464139057   -0.0900
     19 C19        -5.7468    3.0944   53.0521 C.2     1  ZINC000464139057   -0.1200
     20 C20        -6.9005    3.6704   53.1737 C.2     1  ZINC000464139057   -0.1500
     21 C21        -8.0795    3.2041   52.3468 C.3     1  ZINC000464139057   -0.0900
     22 C22        -7.8589    3.6347   50.8950 C.3     1  ZINC000464139057   -0.1100
     23 C23        -7.0229    2.6087   50.1506 C.3     1  ZINC000464139057   -0.1200
     24 C24        -5.5947    2.5049   50.6557 C.3     1  ZINC000464139057   -0.1100
     25 C25        -5.5612    1.9517   52.0768 C.3     1  ZINC000464139057   -0.0800
     26 C26       -10.7068    1.2691   57.8731 C.ar    1  ZINC000464139057   -0.1000
     27 C27       -11.6174    0.2329   57.8587 C.ar    1  ZINC000464139057   -0.0700
     28 C28       -13.2437   -4.0838   57.2341 C.3     1  ZINC000464139057    0.0700
     29 C29       -14.0150   -4.0216   55.9108 C.3     1  ZINC000464139057    0.0700
     30 H30       -14.6505   -3.1361   55.9011 H       1  ZINC000464139057    0.0700
     31 C31       -14.8815   -5.2742   55.7649 C.3     1  ZINC000464139057   -0.1500
     32 O32       -13.0853   -3.9540   54.8255 O.3     1  ZINC000464139057   -0.3700
     33 H33       -13.7891   -1.5346   55.6944 H       1  ZINC000464139057    0.0600
     34 H34       -12.5147   -0.6469   54.8246 H       1  ZINC000464139057    0.0700
     35 H35       -13.7573   -1.5393   53.9147 H       1  ZINC000464139057    0.0700
     36 H36       -10.6786   -3.6014   56.0579 H       1  ZINC000464139057    0.0800
     37 H37       -10.8736   -1.8343   56.1888 H       1  ZINC000464139057    0.1000
     38 H38        -9.6535   -2.2027   59.1740 H       1  ZINC000464139057    0.1300
     39 H39        -8.0432   -0.3435   59.1812 H       1  ZINC000464139057    0.1300
     40 H40        -8.9517    3.1322   58.1526 H       1  ZINC000464139057    0.0800
     41 H41        -7.9505    2.2501   59.3306 H       1  ZINC000464139057    0.0800
     42 H42        -7.2387    1.0650   57.0109 H       1  ZINC000464139057    0.4000
     43 H43        -5.6265    1.8951   55.5410 H       1  ZINC000464139057    0.4000
     44 H44        -5.7215    4.7985   55.2334 H       1  ZINC000464139057    0.0700
     45 H45        -4.2109    4.1550   55.9209 H       1  ZINC000464139057    0.0700
     46 H46        -4.1373    4.4480   53.4148 H       1  ZINC000464139057    0.0700
     47 H47        -3.8356    2.7763   53.9465 H       1  ZINC000464139057    0.0800
     48 H48        -7.0221    4.4877   53.8693 H       1  ZINC000464139057    0.1100
     49 H49        -8.1560    2.1180   52.3987 H       1  ZINC000464139057    0.0700
     50 H50        -8.9952    3.6564   52.7275 H       1  ZINC000464139057    0.0700
     51 H51        -8.8248    3.7376   50.4005 H       1  ZINC000464139057    0.0600
     52 H52        -7.3447    4.5957   50.8800 H       1  ZINC000464139057    0.0600
     53 H53        -7.4992    1.6332   50.2491 H       1  ZINC000464139057    0.0600
     54 H54        -7.0005    2.8773   49.0945 H       1  ZINC000464139057    0.0600
     55 H55        -5.0290    1.8437   49.9993 H       1  ZINC000464139057    0.0600
     56 H56        -5.1381    3.4947   50.6467 H       1  ZINC000464139057    0.0600
     57 H57        -4.6013    1.4684   52.2588 H       1  ZINC000464139057    0.0700
     58 H58        -6.3677    1.2301   52.2076 H       1  ZINC000464139057    0.0700
     59 H59       -10.9948    2.2447   57.5102 H       1  ZINC000464139057    0.1300
     60 H60       -12.6185    0.3973   57.4884 H       1  ZINC000464139057    0.1300
     61 H61       -12.7083   -5.0308   57.3028 H       1  ZINC000464139057    0.0800
     62 H62       -13.9388   -3.9930   58.0688 H       1  ZINC000464139057    0.1000
     63 H63       -15.5869   -5.3265   56.5941 H       1  ZINC000464139057    0.0800
     64 H64       -15.4296   -5.2292   54.8239 H       1  ZINC000464139057    0.0700
     65 H65       -14.2452   -6.1591   55.7729 H       1  ZINC000464139057    0.0700
@<TRIPOS>BOND
     1     1     2    1
     2     1    33    1
     3     1    34    1
     4     1    35    1
     5     2     3    1
     6     2    32    1
     7     2     4    1
     8     4     5    1
     9     4    36    1
    10     4    37    1
    11     5     6   am
    12     5    28    1
    13     6     7    2
    14     6     8    1
    15     8    27   ar
    16     8     9   ar
    17     9    10   ar
    18     9    38    1
    19    10    11   ar
    20    10    39    1
    21    11    12    1
    22    11    26   ar
    23    12    13    1
    24    12    40    1
    25    12    41    1
    26    13    14   am
    27    13    42    1
    28    14    15    2
    29    14    16   am
    30    16    17    1
    31    16    43    1
    32    17    18    1
    33    17    44    1
    34    17    45    1
    35    18    19    1
    36    18    46    1
    37    18    47    1
    38    19    25    1
    39    19    20    2
    40    20    21    1
    41    20    48    1
    42    21    22    1
    43    21    49    1
    44    21    50    1
    45    22    23    1
    46    22    51    1
    47    22    52    1
    48    23    24    1
    49    23    53    1
    50    23    54    1
    51    24    25    1
    52    24    55    1
    53    24    56    1
    54    25    57    1
    55    25    58    1
    56    26    27   ar
    57    26    59    1
    58    27    60    1
    59    28    29    1
    60    28    61    1
    61    28    62    1
    62    29    30    1
    63    29    31    1
    64    29    32    1
    65    31    63    1
    66    31    64    1
    67    31    65    1
@<TRIPOS>SUBSTRUCTURE
     1 ZINC000464139057        1 TEMP              0 ****  ****    0 ROOT


##########                                Name:    ZINC000051488227
##########                DOCK_Rotatable_Bonds:                   8
##########                         Heavy_Atoms:                  30
##########                    Molecular_Weight:             403.478
##########                DOCK_Rotatable_Bonds:                   8
##########                       Formal_Charge:           0.0199996
##########                     HBond_Acceptors:                   5
##########                        HBond_Donors:                   0
##########                         Heavy_Atoms:                  30
##########                          Grid_Score:          -35.961803
##########                     Grid_vdw_energy:          -35.252445
##########                      Grid_es_energy:           -0.709360
##########           Internal_energy_repulsive:           22.309660

@<TRIPOS>MOLECULE
ZINC000051488227
 55 58 1 0 0
SMALL
USER_CHARGES


@<TRIPOS>ATOM
      1 O1        -10.7012   -3.2442   59.1197 O.2     1  ZINC000051488227   -0.5000
      2 C2        -11.0838   -2.1399   58.8126 C.2     1  ZINC000051488227    0.4800
      3 O3        -11.3383   -1.8513   57.5266 O.3     1  ZINC000051488227   -0.3400
      4 C4        -11.4709   -2.9723   56.6133 C.3     1  ZINC000051488227    0.1100
      5 C5        -11.7978   -2.4605   55.2341 C.ar    1  ZINC000051488227   -0.1400
      6 C6        -12.6745   -1.4024   55.0804 C.ar    1  ZINC000051488227   -0.0500
      7 C7        -12.9759   -0.9314   53.8172 C.ar    1  ZINC000051488227   -0.1500
      8 C8        -12.3975   -1.5207   52.7022 C.ar    1  ZINC000051488227    0.1500
      9 O9        -12.6920   -1.0589   51.4585 O.3     1  ZINC000051488227   -0.3100
     10 C10       -13.6204    0.0239   51.3715 C.3     1  ZINC000051488227    0.1100
     11 C11       -13.8402    0.3821   49.9243 C.ar    1  ZINC000051488227    0.1200
     12 C12       -14.1431    1.6861   49.5819 C.ar    1  ZINC000051488227   -0.1500
     13 C13       -14.3430    2.0053   48.2473 C.ar    1  ZINC000051488227   -0.0700
     14 C14       -14.2302    0.9962   47.3035 C.ar    1  ZINC000051488227   -0.1700
     15 C15       -13.9244   -0.2855   47.7212 C.ar    1  ZINC000051488227    0.1100
     16 N16       -13.7359   -0.5515   48.9987 N.ar    1  ZINC000051488227   -0.4800
     17 C17       -11.5178   -2.5818   52.8592 C.ar    1  ZINC000051488227   -0.2100
     18 C18       -11.2161   -3.0460   54.1248 C.ar    1  ZINC000051488227   -0.0500
     19 C19       -11.2814   -1.0887   59.8741 C.3     1  ZINC000051488227    0.0000
     20 C20       -12.6352   -1.2647   60.5121 C.ar    1  ZINC000051488227   -0.0900
     21 C21       -12.9790   -0.5156   61.6218 C.ar    1  ZINC000051488227   -0.1100
     22 C22       -14.2209   -0.6770   62.2071 C.ar    1  ZINC000051488227   -0.1200
     23 C23       -15.1193   -1.5872   61.6823 C.ar    1  ZINC000051488227   -0.1100
     24 C24       -14.7758   -2.3357   60.5720 C.ar    1  ZINC000051488227   -0.1200
     25 C25       -13.5355   -2.1712   59.9842 C.ar    1  ZINC000051488227   -0.1000
     26 C26       -10.1893   -1.2248   60.9395 C.3     1  ZINC000051488227   -0.1400
     27 C27        -8.8243   -0.9675   60.2959 C.3     1  ZINC000051488227    0.0600
     28 O28        -8.8178    0.3307   59.6988 O.3     1  ZINC000051488227   -0.3800
     29 C29        -9.7869    0.5011   58.6624 C.3     1  ZINC000051488227    0.0500
     30 C30       -11.1905    0.3029   59.2405 C.3     1  ZINC000051488227   -0.1400
     31 H31       -10.5339   -3.5283   56.5819 H       1  ZINC000051488227    0.0800
     32 H32       -12.2712   -3.6280   56.9566 H       1  ZINC000051488227    0.0800
     33 H33       -13.1245   -0.9441   55.9487 H       1  ZINC000051488227    0.1300
     34 H34       -13.6612   -0.1055   53.6976 H       1  ZINC000051488227    0.1400
     35 H35       -14.5683   -0.2732   51.8203 H       1  ZINC000051488227    0.0900
     36 H36       -13.2217    0.8880   51.9031 H       1  ZINC000051488227    0.0900
     37 H37       -14.2235    2.4470   50.3441 H       1  ZINC000051488227    0.1400
     38 H38       -14.5812    3.0160   47.9503 H       1  ZINC000051488227    0.1400
     39 H39       -14.3798    1.2087   46.2552 H       1  ZINC000051488227    0.1400
     40 H40       -13.8351   -1.0774   46.9921 H       1  ZINC000051488227    0.1600
     41 H41       -11.0666   -3.0424   51.9928 H       1  ZINC000051488227    0.1300
     42 H42       -10.5310   -3.8719   54.2476 H       1  ZINC000051488227    0.1300
     43 H43       -12.2772    0.1956   62.0318 H       1  ZINC000051488227    0.1300
     44 H44       -14.4892   -0.0923   63.0745 H       1  ZINC000051488227    0.1300
     45 H45       -16.0893   -1.7138   62.1400 H       1  ZINC000051488227    0.1200
     46 H46       -15.4776   -3.0470   60.1622 H       1  ZINC000051488227    0.1200
     47 H47       -13.2673   -2.7560   59.1168 H       1  ZINC000051488227    0.1300
     48 H48       -10.3611   -0.4969   61.7325 H       1  ZINC000051488227    0.0900
     49 H49       -10.2111   -2.2315   61.3571 H       1  ZINC000051488227    0.0900
     50 H50        -8.0470   -1.0209   61.0581 H       1  ZINC000051488227    0.1000
     51 H51        -8.6355   -1.7205   59.5307 H       1  ZINC000051488227    0.0500
     52 H52        -9.7030    1.5058   58.2480 H       1  ZINC000051488227    0.1000
     53 H53        -9.6107   -0.2325   57.8758 H       1  ZINC000051488227    0.0700
     54 H54       -11.9284    0.3888   58.4430 H       1  ZINC000051488227    0.0900
     55 H55       -11.3825    1.0617   59.9991 H       1  ZINC000051488227    0.0900
@<TRIPOS>BOND
     1     1     2    2
     2     2     3    1
     3     2    19    1
     4     3     4    1
     5     4     5    1
     6     4    31    1
     7     4    32    1
     8     5    18   ar
     9     5     6   ar
    10     6     7   ar
    11     6    33    1
    12     7     8   ar
    13     7    34    1
    14     8     9    1
    15     8    17   ar
    16     9    10    1
    17    10    11    1
    18    10    35    1
    19    10    36    1
    20    11    16   ar
    21    11    12   ar
    22    12    13   ar
    23    12    37    1
    24    13    14   ar
    25    13    38    1
    26    14    15   ar
    27    14    39    1
    28    15    16   ar
    29    15    40    1
    30    17    18   ar
    31    17    41    1
    32    18    42    1
    33    19    30    1
    34    19    20    1
    35    19    26    1
    36    20    25   ar
    37    20    21   ar
    38    21    22   ar
    39    21    43    1
    40    22    23   ar
    41    22    44    1
    42    23    24   ar
    43    23    45    1
    44    24    25   ar
    45    24    46    1
    46    25    47    1
    47    26    27    1
    48    26    48    1
    49    26    49    1
    50    27    28    1
    51    27    50    1
    52    27    51    1
    53    28    29    1
    54    29    30    1
    55    29    52    1
    56    29    53    1
    57    30    54    1
    58    30    55    1
@<TRIPOS>SUBSTRUCTURE
     1 ZINC000051488227        1 TEMP              0 ****  ****    0 ROOT


##########                                Name:    ZINC000506566356
##########                DOCK_Rotatable_Bonds:                  10
##########                         Heavy_Atoms:                  28
##########                    Molecular_Weight:               415.9
##########                DOCK_Rotatable_Bonds:                  10
##########                       Formal_Charge:           0.0199998
##########                     HBond_Acceptors:                   8
##########                        HBond_Donors:                   2
##########                         Heavy_Atoms:                  28
##########                          Grid_Score:          -35.944897
##########                     Grid_vdw_energy:          -35.199642
##########                      Grid_es_energy:           -0.745253
##########           Internal_energy_repulsive:            9.295243

@<TRIPOS>MOLECULE
ZINC000506566356
 46 48 1 0 0
SMALL
USER_CHARGES


@<TRIPOS>ATOM
      1 O1        -10.8993   -3.2635   54.7546 O.2     1  ZINC000506566356   -0.5100
      2 C2        -11.9610   -2.6758   54.7741 C.2     1  ZINC000506566356    0.5100
      3 N3        -12.1748   -1.6426   53.9356 N.am    1  ZINC000506566356   -0.7000
      4 C4        -11.1235   -1.2250   53.0047 C.3     1  ZINC000506566356    0.1200
      5 C5        -10.5589    0.1269   53.4461 C.3     1  ZINC000506566356   -0.0900
      6 C6         -9.4269    0.5209   52.5327 C.ar    1  ZINC000506566356   -0.0700
      7 C7         -8.5117   -0.4281   52.1177 C.ar    1  ZINC000506566356   -0.1100
      8 C8         -7.4731   -0.0675   51.2793 C.ar    1  ZINC000506566356   -0.1000
      9 C9         -7.3492    1.2422   50.8562 C.ar    1  ZINC000506566356   -0.1100
     10 C10        -8.2651    2.1927   51.2714 C.ar    1  ZINC000506566356   -0.0300
     11 Cl11       -8.1104    3.8381   50.7398 Cl      1  ZINC000506566356   -0.0700
     12 C12        -9.3073    1.8302   52.1056 C.ar    1  ZINC000506566356   -0.1000
     13 C13       -13.0327   -3.1015   55.7230 C.2     1  ZINC000506566356    0.5100
     14 O14       -13.3705   -4.2663   55.7740 O.2     1  ZINC000506566356   -0.5000
     15 N15       -13.6249   -2.1924   56.5226 N.am    1  ZINC000506566356   -0.6300
     16 C16       -14.6287   -2.5912   57.4114 C.ar    1  ZINC000506566356    0.1100
     17 C17       -15.9347   -2.7370   56.9660 C.ar    1  ZINC000506566356   -0.0800
     18 C18       -16.9247   -3.1310   57.8463 C.ar    1  ZINC000506566356   -0.1400
     19 C19       -16.6175   -3.3806   59.1709 C.ar    1  ZINC000506566356   -0.0900
     20 C20       -15.3184   -3.2371   59.6227 C.ar    1  ZINC000506566356   -0.1900
     21 C21       -14.3188   -2.8486   58.7461 C.ar    1  ZINC000506566356    0.1200
     22 O22       -13.0412   -2.7070   59.1886 O.3     1  ZINC000506566356   -0.3100
     23 C23       -12.8419   -1.8918   60.3454 C.3     1  ZINC000506566356    0.1400
     24 C24       -11.3689   -1.6320   60.5291 C.2     1  ZINC000506566356    0.0500
     25 C25       -10.8996   -0.6260   61.2731 C.2     1  ZINC000506566356   -0.2300
     26 S26        -9.1394   -0.6858   61.2176 S.3     1  ZINC000506566356    0.1400
     27 C27        -9.2097   -2.0577   60.1996 C.2     1  ZINC000506566356    0.0200
     28 N28       -10.4381   -2.3815   59.9737 N.2     1  ZINC000506566356   -0.4700
     29 H29       -13.0248   -1.1753   53.9484 H       1  ZINC000506566356    0.4200
     30 H30       -10.3259   -1.9679   53.0004 H       1  ZINC000506566356    0.0800
     31 H31       -11.5410   -1.1344   52.0020 H       1  ZINC000506566356    0.0800
     32 H32       -11.3440    0.8816   53.3982 H       1  ZINC000506566356    0.0900
     33 H33       -10.1906    0.0502   54.4691 H       1  ZINC000506566356    0.0900
     34 H34        -8.6077   -1.4517   52.4487 H       1  ZINC000506566356    0.1300
     35 H35        -6.7583   -0.8094   50.9553 H       1  ZINC000506566356    0.1300
     36 H36        -6.5374    1.5239   50.2019 H       1  ZINC000506566356    0.1300
     37 H37       -10.0225    2.5716   52.4299 H       1  ZINC000506566356    0.1300
     38 H38       -13.3549   -1.2616   56.4818 H       1  ZINC000506566356    0.4300
     39 H39       -16.1776   -2.5424   55.9318 H       1  ZINC000506566356    0.1500
     40 H40       -17.9409   -3.2438   57.4985 H       1  ZINC000506566356    0.1300
     41 H41       -17.3945   -3.6883   59.8551 H       1  ZINC000506566356    0.1300
     42 H42       -15.0823   -3.4322   60.6584 H       1  ZINC000506566356    0.1400
     43 H43       -13.3647   -0.9441   60.2164 H       1  ZINC000506566356    0.0900
     44 H44       -13.2325   -2.4057   61.2237 H       1  ZINC000506566356    0.0900
     45 H45       -11.4940    0.0961   61.8130 H       1  ZINC000506566356    0.1800
     46 H46        -8.3502   -2.5802   59.8062 H       1  ZINC000506566356    0.2100
@<TRIPOS>BOND
     1     1     2    2
     2     2     3   am
     3     2    13    1
     4     3     4    1
     5     3    29    1
     6     4     5    1
     7     4    30    1
     8     4    31    1
     9     5     6    1
    10     5    32    1
    11     5    33    1
    12     6    12   ar
    13     6     7   ar
    14     7     8   ar
    15     7    34    1
    16     8     9   ar
    17     8    35    1
    18     9    10   ar
    19     9    36    1
    20    10    11    1
    21    10    12   ar
    22    12    37    1
    23    13    14    2
    24    13    15   am
    25    15    16    1
    26    15    38    1
    27    16    21   ar
    28    16    17   ar
    29    17    18   ar
    30    17    39    1
    31    18    19   ar
    32    18    40    1
    33    19    20   ar
    34    19    41    1
    35    20    21   ar
    36    20    42    1
    37    21    22    1
    38    22    23    1
    39    23    24    1
    40    23    43    1
    41    23    44    1
    42    24    28    1
    43    24    25    2
    44    25    26    1
    45    25    45    1
    46    26    27    1
    47    27    28    2
    48    27    46    1
@<TRIPOS>SUBSTRUCTURE
     1 ZINC000506566356        1 TEMP              0 ****  ****    0 ROOT


##########                                Name:    ZINC001109082135
##########                DOCK_Rotatable_Bonds:                   9
##########                         Heavy_Atoms:                  27
##########                    Molecular_Weight:             373.455
##########                DOCK_Rotatable_Bonds:                   9
##########                       Formal_Charge:          -0.0100003
##########                     HBond_Acceptors:                   8
##########                        HBond_Donors:                   3
##########                         Heavy_Atoms:                  27
##########                          Grid_Score:          -35.892437
##########                     Grid_vdw_energy:          -32.725918
##########                      Grid_es_energy:           -3.166519
##########           Internal_energy_repulsive:           18.348381

@<TRIPOS>MOLECULE
ZINC001109082135
 54 57 1 0 0
SMALL
USER_CHARGES


@<TRIPOS>ATOM
      1 C1         -9.9421    3.3157   67.5720 C.3     1  ZINC001109082135   -0.1400
      2 C2         -8.5362    2.7333   67.7306 C.3     1  ZINC001109082135   -0.1400
      3 C3         -8.3772    1.5480   66.8135 C.2     1  ZINC001109082135    0.5100
      4 O4         -8.6622    0.4360   67.2048 O.2     1  ZINC001109082135   -0.5400
      5 N5         -7.9184    1.7237   65.5585 N.am    1  ZINC001109082135   -0.7200
      6 C6         -7.7622    0.5713   64.6676 C.3     1  ZINC001109082135    0.1000
      7 C7         -9.0517    0.3315   63.9256 C.2     1  ZINC001109082135    0.5100
      8 O8        -10.1127    0.4386   64.5033 O.2     1  ZINC001109082135   -0.5300
      9 N9         -9.0259   -0.0020   62.6199 N.am    1  ZINC001109082135   -0.7100
     10 C10       -10.2797   -0.2334   61.8982 C.3     1  ZINC001109082135    0.1100
     11 H11       -11.0938   -0.4243   62.5973 H       1  ZINC001109082135    0.0900
     12 C12       -10.6148    0.9731   60.9874 C.3     1  ZINC001109082135   -0.1600
     13 C13       -10.6178    0.3586   59.5551 C.3     1  ZINC001109082135    0.0600
     14 H14       -11.1678    0.9229   58.8020 H       1  ZINC001109082135    0.1300
     15 C15        -9.1184    0.0853   59.2295 C.3     1  ZINC001109082135   -0.1200
     16 C16        -8.7639   -1.1170   60.1384 C.3     1  ZINC001109082135   -0.1100
     17 C17       -10.1261   -1.4183   60.8977 C.3     1  ZINC001109082135    0.0400
     18 H18       -10.2212   -2.4214   61.3136 H       1  ZINC001109082135    0.1200
     19 N19       -11.1279   -1.0303   59.8386 N.3     1  ZINC001109082135   -0.4800
     20 C20       -12.4903   -1.0038   60.3872 C.3     1  ZINC001109082135    0.0800
     21 C21       -13.3644   -1.9520   59.6075 C.2     1  ZINC001109082135    0.2000
     22 C22       -14.4709   -2.4935   60.1883 C.2     1  ZINC001109082135   -0.2900
     23 C23       -15.2672   -3.3768   59.4304 C.2     1  ZINC001109082135    0.5200
     24 O24       -16.2669   -3.8834   59.9120 O.2     1  ZINC001109082135   -0.5400
     25 N25       -14.8999   -3.6492   58.1600 N.am    1  ZINC001109082135   -0.6300
     26 C26       -13.7928   -3.0803   57.6438 C.2     1  ZINC001109082135    0.4300
     27 C27       -13.3967   -3.3949   56.2242 C.3     1  ZINC001109082135   -0.1400
     28 C28       -13.3887   -2.2401   55.2206 C.3     1  ZINC001109082135   -0.1400
     29 C29       -12.0677   -2.8290   55.7198 C.3     1  ZINC001109082135   -0.1400
     30 N30       -13.0581   -2.2581   58.3444 N.2     1  ZINC001109082135   -0.5300
     31 H31       -10.6810    2.5565   67.8281 H       1  ZINC001109082135    0.0600
     32 H32       -10.0571    4.1730   68.2353 H       1  ZINC001109082135    0.0600
     33 H33       -10.0897    3.6328   66.5396 H       1  ZINC001109082135    0.0600
     34 H34        -7.7973    3.4926   67.4744 H       1  ZINC001109082135    0.1000
     35 H35        -8.3886    2.4162   68.7629 H       1  ZINC001109082135    0.1000
     36 H36        -7.6916    2.6133   65.2452 H       1  ZINC001109082135    0.4100
     37 H37        -6.9633    0.7702   63.9529 H       1  ZINC001109082135    0.1000
     38 H38        -7.5119   -0.3115   65.2559 H       1  ZINC001109082135    0.1000
     39 H39        -8.1773   -0.0888   62.1583 H       1  ZINC001109082135    0.4000
     40 H40       -11.5964    1.3784   61.2331 H       1  ZINC001109082135    0.0800
     41 H41        -9.8482    1.7432   61.0729 H       1  ZINC001109082135    0.0800
     42 H42        -8.9959   -0.1786   58.1790 H       1  ZINC001109082135    0.0700
     43 H43        -8.5067    0.9512   59.4826 H       1  ZINC001109082135    0.0700
     44 H44        -8.4656   -1.9768   59.5385 H       1  ZINC001109082135    0.0700
     45 H45        -7.9765   -0.8470   60.8421 H       1  ZINC001109082135    0.0700
     46 H46       -12.4667   -1.3085   61.4335 H       1  ZINC001109082135    0.1000
     47 H47       -12.8927    0.0064   60.3120 H       1  ZINC001109082135    0.0700
     48 H48       -14.7328   -2.2519   61.2078 H       1  ZINC001109082135    0.1600
     49 H49       -15.4321   -4.2541   57.6197 H       1  ZINC001109082135    0.4200
     50 H50       -13.6963   -4.3773   55.8593 H       1  ZINC001109082135    0.1300
     51 H51       -13.6832   -2.4626   54.1950 H       1  ZINC001109082135    0.1100
     52 H52       -13.6700   -1.2529   55.5871 H       1  ZINC001109082135    0.1100
     53 H53       -11.4799   -2.2291   56.4147 H       1  ZINC001109082135    0.1100
     54 H54       -11.4932   -3.4389   55.0226 H       1  ZINC001109082135    0.1100
@<TRIPOS>BOND
     1     1     2    1
     2     1    31    1
     3     1    32    1
     4     1    33    1
     5     2     3    1
     6     2    34    1
     7     2    35    1
     8     3     4    2
     9     3     5   am
    10     5     6    1
    11     5    36    1
    12     6     7    1
    13     6    37    1
    14     6    38    1
    15     7     8    2
    16     7     9   am
    17     9    10    1
    18     9    39    1
    19    10    11    1
    20    10    17    1
    21    10    12    1
    22    12    13    1
    23    12    40    1
    24    12    41    1
    25    13    14    1
    26    13    19    1
    27    13    15    1
    28    15    16    1
    29    15    42    1
    30    15    43    1
    31    16    17    1
    32    16    44    1
    33    16    45    1
    34    17    18    1
    35    17    19    1
    36    19    20    1
    37    20    21    1
    38    20    46    1
    39    20    47    1
    40    21    30    1
    41    21    22    2
    42    22    23    1
    43    22    48    1
    44    23    24    2
    45    23    25   am
    46    25    26    1
    47    25    49    1
    48    26    27    1
    49    26    30    2
    50    27    29    1
    51    27    28    1
    52    27    50    1
    53    28    29    1
    54    28    51    1
    55    28    52    1
    56    29    53    1
    57    29    54    1
@<TRIPOS>SUBSTRUCTURE
     1 ZINC001109082135        1 TEMP              0 ****  ****    0 ROOT


##########                                Name:    ZINC000512699033
##########                DOCK_Rotatable_Bonds:                   9
##########                         Heavy_Atoms:                  30
##########                    Molecular_Weight:              405.54
##########                DOCK_Rotatable_Bonds:                   9
##########                       Formal_Charge:           0.0199988
##########                     HBond_Acceptors:                   5
##########                        HBond_Donors:                   2
##########                         Heavy_Atoms:                  30
##########                          Grid_Score:          -35.801575
##########                     Grid_vdw_energy:          -35.924446
##########                      Grid_es_energy:            0.122873
##########           Internal_energy_repulsive:           13.790327

@<TRIPOS>MOLECULE
ZINC000512699033
 61 64 1 0 0
SMALL
USER_CHARGES


@<TRIPOS>ATOM
      1 O1        -12.1380   -2.7829   52.8339 O.2     1  ZINC000512699033   -0.5100
      2 C2        -11.8811   -1.6178   53.0518 C.2     1  ZINC000512699033    0.5200
      3 C3        -10.8998   -0.8855   52.1734 C.3     1  ZINC000512699033   -0.1500
      4 C4        -10.3459    0.3256   52.9266 C.3     1  ZINC000512699033    0.1300
      5 N5         -9.4019    1.0450   52.0678 N.am    1  ZINC000512699033   -0.7300
      6 C6         -8.1014    0.6917   52.0520 C.2     1  ZINC000512699033    0.5200
      7 O7         -7.7122   -0.2205   52.7498 O.2     1  ZINC000512699033   -0.5300
      8 C8         -7.1306    1.4307   51.1672 C.3     1  ZINC000512699033   -0.1100
      9 C9         -7.5411    2.9018   51.0768 C.3     1  ZINC000512699033   -0.1100
     10 C10        -6.5555    3.6519   50.1784 C.3     1  ZINC000512699033   -0.1200
     11 C11        -5.1479    3.5505   50.7694 C.3     1  ZINC000512699033   -0.1200
     12 C12        -4.7375    2.0793   50.8598 C.3     1  ZINC000512699033   -0.1200
     13 C13        -5.7230    1.3292   51.7581 C.3     1  ZINC000512699033   -0.1000
     14 N14       -12.4775   -0.9764   54.0762 N.am    1  ZINC000512699033   -0.6600
     15 C15       -13.3888   -1.6564   54.8919 C.ar    1  ZINC000512699033    0.1700
     16 C16       -14.7302   -1.7145   54.5383 C.ar    1  ZINC000512699033   -0.1400
     17 C17       -15.6272   -2.3871   55.3454 C.ar    1  ZINC000512699033   -0.1000
     18 C18       -15.1904   -3.0014   56.5045 C.ar    1  ZINC000512699033   -0.1400
     19 C19       -13.8549   -2.9452   56.8594 C.ar    1  ZINC000512699033   -0.0900
     20 C20       -12.9523   -2.2794   56.0540 C.ar    1  ZINC000512699033   -0.1200
     21 C21       -11.4972   -2.2187   56.4415 C.3     1  ZINC000512699033    0.0900
     22 N22       -11.3799   -1.7658   57.8340 N.3     1  ZINC000512699033   -0.4700
     23 C23       -10.7540   -2.8062   58.6788 C.3     1  ZINC000512699033    0.0500
     24 C24       -10.0112   -1.9722   59.7477 C.3     1  ZINC000512699033   -0.0900
     25 C25        -9.7653   -0.6562   59.0369 C.ar    1  ZINC000512699033   -0.1400
     26 C26        -8.9163    0.3923   59.3213 C.ar    1  ZINC000512699033   -0.0800
     27 C27        -8.8794    1.4991   58.4921 C.ar    1  ZINC000512699033   -0.1400
     28 C28        -9.6953    1.5520   57.3770 C.ar    1  ZINC000512699033   -0.0900
     29 C29       -10.5481    0.5066   57.0894 C.ar    1  ZINC000512699033   -0.1400
     30 C30       -10.5933   -0.6105   57.9214 C.ar    1  ZINC000512699033    0.0900
     31 H31       -10.0807   -1.5539   51.9078 H       1  ZINC000512699033    0.1100
     32 H32       -11.4036   -0.5502   51.2668 H       1  ZINC000512699033    0.1000
     33 H33       -11.1660    0.9891   53.2008 H       1  ZINC000512699033    0.0800
     34 H34        -9.8336   -0.0104   53.8281 H       1  ZINC000512699033    0.0800
     35 H35        -9.7129    1.7754   51.5105 H       1  ZINC000512699033    0.4000
     36 H36        -7.1390    0.9892   50.1706 H       1  ZINC000512699033    0.1000
     37 H37        -8.5438    2.9740   50.6558 H       1  ZINC000512699033    0.0700
     38 H38        -7.5326    3.3432   52.0733 H       1  ZINC000512699033    0.0700
     39 H39        -6.5639    3.2105   49.1818 H       1  ZINC000512699033    0.0600
     40 H40        -6.8478    4.7000   50.1140 H       1  ZINC000512699033    0.0700
     41 H41        -4.4458    4.0848   50.1294 H       1  ZINC000512699033    0.0600
     42 H42        -5.1395    3.9919   51.7660 H       1  ZINC000512699033    0.0600
     43 H43        -4.7458    1.6378   49.8632 H       1  ZINC000512699033    0.0600
     44 H44        -3.7346    2.0071   51.2808 H       1  ZINC000512699033    0.0700
     45 H45        -5.7147    1.7707   52.7547 H       1  ZINC000512699033    0.0700
     46 H46        -5.4307    0.2811   51.8225 H       1  ZINC000512699033    0.0700
     47 H47       -12.2751   -0.0434   54.2480 H       1  ZINC000512699033    0.4200
     48 H48       -15.0720   -1.2343   53.6333 H       1  ZINC000512699033    0.1500
     49 H49       -16.6706   -2.4326   55.0709 H       1  ZINC000512699033    0.1300
     50 H50       -15.8938   -3.5259   57.1342 H       1  ZINC000512699033    0.1200
     51 H51       -13.5168   -3.4261   57.7654 H       1  ZINC000512699033    0.1200
     52 H52       -11.0534   -3.2094   56.3429 H       1  ZINC000512699033    0.0600
     53 H53       -10.9758   -1.5202   55.7871 H       1  ZINC000512699033    0.0900
     54 H54       -11.5131   -3.4380   59.1400 H       1  ZINC000512699033    0.1000
     55 H55       -10.0517   -3.4046   58.0985 H       1  ZINC000512699033    0.0600
     56 H56       -10.6386   -1.8247   60.6268 H       1  ZINC000512699033    0.0900
     57 H57        -9.0681   -2.4459   60.0202 H       1  ZINC000512699033    0.0800
     58 H58        -8.2796    0.3497   60.1926 H       1  ZINC000512699033    0.1200
     59 H59        -8.2148    2.3205   58.7156 H       1  ZINC000512699033    0.1300
     60 H60        -9.6651    2.4154   56.7291 H       1  ZINC000512699033    0.1300
     61 H61       -11.1831    0.5541   56.2170 H       1  ZINC000512699033    0.1200
@<TRIPOS>BOND
     1     1     2    2
     2     2     3    1
     3     2    14   am
     4     3     4    1
     5     3    31    1
     6     3    32    1
     7     4     5    1
     8     4    33    1
     9     4    34    1
    10     5     6   am
    11     5    35    1
    12     6     7    2
    13     6     8    1
    14     8    13    1
    15     8     9    1
    16     8    36    1
    17     9    10    1
    18     9    37    1
    19     9    38    1
    20    10    11    1
    21    10    39    1
    22    10    40    1
    23    11    12    1
    24    11    41    1
    25    11    42    1
    26    12    13    1
    27    12    43    1
    28    12    44    1
    29    13    45    1
    30    13    46    1
    31    14    15    1
    32    14    47    1
    33    15    20   ar
    34    15    16   ar
    35    16    17   ar
    36    16    48    1
    37    17    18   ar
    38    17    49    1
    39    18    19   ar
    40    18    50    1
    41    19    20   ar
    42    19    51    1
    43    20    21    1
    44    21    22    1
    45    21    52    1
    46    21    53    1
    47    22    30    1
    48    22    23    1
    49    23    24    1
    50    23    54    1
    51    23    55    1
    52    24    25    1
    53    24    56    1
    54    24    57    1
    55    25    30   ar
    56    25    26   ar
    57    26    27   ar
    58    26    58    1
    59    27    28   ar
    60    27    59    1
    61    28    29   ar
    62    28    60    1
    63    29    30   ar
    64    29    61    1
@<TRIPOS>SUBSTRUCTURE
     1 ZINC000512699033        1 TEMP              0 ****  ****    0 ROOT


##########                                Name:     oleObject15.pdb
##########                DOCK_Rotatable_Bonds:                   9
##########                         Heavy_Atoms:                  29
##########                    Molecular_Weight:             395.545
##########                DOCK_Rotatable_Bonds:                   9
##########                       Formal_Charge:         0.000700183
##########                     HBond_Acceptors:                   5
##########                        HBond_Donors:                   1
##########                         Heavy_Atoms:                  29
##########                          Grid_Score:          -35.700527
##########                     Grid_vdw_energy:          -35.434605
##########                      Grid_es_energy:           -0.265923
##########           Internal_energy_repulsive:           12.120129

@<TRIPOS>MOLECULE
oleObject15.pdb
 62 64 1 0 0
SMALL
NO_CHARGES


@<TRIPOS>ATOM
      1 O          -7.9909    2.0723   51.1976 O.3     1  UNL        -0.3745
      2 C          -7.3437    1.1026   52.0522 C.3     1  UNL         0.0600
      3 C          -8.1595   -0.2105   52.0136 C.3     1  UNL         0.0217
      4 N          -9.5957   -0.0535   52.3421 N.4     1  UNL        -0.3010
      5 C         -10.4336   -1.2349   52.0330 C.3     1  UNL        -0.0010
      6 C         -11.9327   -0.9550   52.2758 C.3     1  UNL        -0.0289
      7 C         -12.2222   -0.4244   53.7006 C.3     1  UNL         0.0382
      8 C         -11.2723    0.7543   54.0315 C.3     1  UNL        -0.0289
      9 C          -9.7880    0.4538   53.7172 C.3     1  UNL        -0.0010
     10 C         -12.1507   -1.5540   54.7580 C.2     1  UNL         0.2156
     11 O         -12.4188   -2.7099   54.4848 O.2     1  UNL        -0.2774
     12 N         -11.7265   -1.2657   56.0488 N.am    1  UNL        -0.3025
     13 C         -11.5937   -2.1996   57.1829 C.3     1  UNL         0.0900
     14 C         -10.7807   -1.6200   58.3390 C.ar    1  UNL        -0.0217
     15 C         -10.7315   -2.2655   59.5911 C.ar    1  UNL        -0.0568
     16 C          -9.9891   -1.7124   60.6472 C.ar    1  UNL        -0.0619
     17 C          -9.2873   -0.5114   60.4597 C.ar    1  UNL        -0.0622
     18 C          -9.3264    0.1344   59.2140 C.ar    1  UNL        -0.0619
     19 C         -10.0686   -0.4191   58.1580 C.ar    1  UNL        -0.0568
     20 C         -12.9534   -2.6902   57.6716 C.ar    1  UNL         0.0652
     21 C         -13.7383   -1.9314   58.5643 C.ar    1  UNL        -0.0383
     22 C         -14.9774   -2.4406   58.9848 C.ar    1  UNL        -0.0588
     23 C         -15.3883   -3.6916   58.4992 C.ar    1  UNL        -0.0438
     24 C         -14.5435   -4.3824   57.6135 C.ar    1  UNL         0.0272
     25 N         -13.3532   -3.8949   57.2087 N.ar    1  UNL        -0.2590
     26 C          -7.3955    3.3796   51.0206 C.3     1  UNL         0.0599
     27 C          -6.0683    3.2441   50.2327 C.3     1  UNL        -0.0364
     28 C          -8.4241    4.1787   50.1889 C.3     1  UNL        -0.0364
     29 C          -7.1812    4.0567   52.3974 C.3     1  UNL        -0.0364
     30 H          -7.3107    1.4667   53.0861 H       1  UNL         0.0581
     31 H          -6.3161    0.9058   51.7278 H       1  UNL         0.0581
     32 H          -7.7014   -0.9069   52.7275 H       1  UNL         0.0455
     33 H          -8.0594   -0.6547   51.0151 H       1  UNL         0.0455
     34 H         -10.1170   -2.0861   52.6494 H       1  UNL         0.0431
     35 H         -10.3174   -1.5226   50.9816 H       1  UNL         0.0431
     36 H         -12.5129   -1.8647   52.0824 H       1  UNL         0.0288
     37 H         -12.2690   -0.2084   51.5446 H       1  UNL         0.0288
     38 H         -13.2314   -0.0045   53.6937 H       1  UNL         0.0402
     39 H         -11.3801    1.0402   55.0856 H       1  UNL         0.0288
     40 H         -11.5773    1.6262   53.4384 H       1  UNL         0.0288
     41 H          -9.4043   -0.2799   54.4370 H       1  UNL         0.0431
     42 H          -9.2115    1.3776   53.8548 H       1  UNL         0.0431
     43 H         -11.3854   -0.3243   56.1954 H       1  UNL         0.1504
     44 H         -11.0640   -3.0828   56.8037 H       1  UNL         0.0624
     45 H         -11.2761   -3.1913   59.7518 H       1  UNL         0.0626
     46 H          -9.9600   -2.2134   61.6106 H       1  UNL         0.0623
     47 H          -8.7135   -0.0833   61.2766 H       1  UNL         0.0623
     48 H          -8.7817    1.0626   59.0664 H       1  UNL         0.0623
     49 H         -10.0914    0.0880   57.1973 H       1  UNL         0.0626
     50 H         -13.3955   -0.9666   58.9256 H       1  UNL         0.0643
     51 H         -15.6039   -1.8788   59.6715 H       1  UNL         0.0624
     52 H         -16.3399   -4.1185   58.8018 H       1  UNL         0.0639
     53 H         -14.8279   -5.3560   57.2161 H       1  UNL         0.0840
     54 H          -6.2139    2.6468   49.3235 H       1  UNL         0.0260
     55 H          -5.2873    2.7658   50.8360 H       1  UNL         0.0260
     56 H          -5.6932    4.2307   49.9328 H       1  UNL         0.0260
     57 H          -8.6096    3.6903   49.2235 H       1  UNL         0.0260
     58 H          -8.0657    5.1967   49.9906 H       1  UNL         0.0260
     59 H          -9.3820    4.2536   50.7195 H       1  UNL         0.0260
     60 H          -6.3970    3.5530   52.9759 H       1  UNL         0.0260
     61 H          -8.1065    4.0428   52.9877 H       1  UNL         0.0260
     62 H          -6.8765    5.1033   52.2713 H       1  UNL         0.0260
@<TRIPOS>BOND
     1     1     2    1
     2     1    26    1
     3     2     3    1
     4     2    30    1
     5     2    31    1
     6     3     4    1
     7     3    32    1
     8     3    33    1
     9     4     5    1
    10     4     9    1
    11     5     6    1
    12     5    34    1
    13     5    35    1
    14     6     7    1
    15     6    36    1
    16     6    37    1
    17     7     8    1
    18     7    10    1
    19     7    38    1
    20     8     9    1
    21     8    39    1
    22     8    40    1
    23     9    41    1
    24     9    42    1
    25    10    11    2
    26    10    12   am
    27    12    13    1
    28    12    43    1
    29    13    14    1
    30    13    20    1
    31    13    44    1
    32    14    15   ar
    33    14    19   ar
    34    15    16   ar
    35    15    45    1
    36    16    17   ar
    37    16    46    1
    38    17    18   ar
    39    17    47    1
    40    18    19   ar
    41    18    48    1
    42    19    49    1
    43    20    21   ar
    44    20    25   ar
    45    21    22   ar
    46    21    50    1
    47    22    23   ar
    48    22    51    1
    49    23    24   ar
    50    23    52    1
    51    24    25   ar
    52    24    53    1
    53    26    27    1
    54    26    28    1
    55    26    29    1
    56    27    54    1
    57    27    55    1
    58    27    56    1
    59    28    57    1
    60    28    58    1
    61    28    59    1
    62    29    60    1
    63    29    61    1
    64    29    62    1
@<TRIPOS>SUBSTRUCTURE
     1 UNL         1 TEMP              0 ****  ****    0 ROOT


##########                                Name:    ZINC000462219577
##########                DOCK_Rotatable_Bonds:                   8
##########                         Heavy_Atoms:                  31
##########                    Molecular_Weight:             418.539
##########                DOCK_Rotatable_Bonds:                   8
##########                       Formal_Charge:         -0.00999914
##########                     HBond_Acceptors:                   6
##########                        HBond_Donors:                   2
##########                         Heavy_Atoms:                  31
##########                          Grid_Score:          -35.655998
##########                     Grid_vdw_energy:          -34.234833
##########                      Grid_es_energy:           -1.421164
##########           Internal_energy_repulsive:           16.961941

@<TRIPOS>MOLECULE
ZINC000462219577
 61 64 1 0 0
SMALL
USER_CHARGES


@<TRIPOS>ATOM
      1 C1         -7.7304    2.0045   56.7340 C.3     1  ZINC000462219577   -0.0700
      2 C2         -8.2474    1.9678   55.3189 C.2     1  ZINC000462219577    0.0800
      3 N3         -9.4646    1.6537   54.9548 N.2     1  ZINC000462219577   -0.2900
      4 N4         -9.5402    1.7395   53.5587 N.pl3   1  ZINC000462219577   -0.3200
      5 C5        -10.6744    1.4813   52.7764 C.ar    1  ZINC000462219577    0.1500
      6 C6        -10.9813    0.1793   52.4047 C.ar    1  ZINC000462219577   -0.1100
      7 C7        -12.0994   -0.0721   51.6339 C.ar    1  ZINC000462219577   -0.1000
      8 C8        -12.9127    0.9717   51.2319 C.ar    1  ZINC000462219577   -0.1200
      9 C9        -12.6093    2.2696   51.6001 C.ar    1  ZINC000462219577   -0.1000
     10 C10       -11.4962    2.5263   52.3764 C.ar    1  ZINC000462219577   -0.1300
     11 C11        -8.3253    2.1161   53.0993 C.2     1  ZINC000462219577    0.0900
     12 C12        -7.9489    2.3327   51.6563 C.3     1  ZINC000462219577   -0.0800
     13 C13        -6.8530    1.3409   51.2608 C.3     1  ZINC000462219577    0.1700
     14 H14        -6.7579    1.3183   50.1753 H       1  ZINC000462219577    0.1000
     15 C15        -7.2202   -0.0546   51.7697 C.3     1  ZINC000462219577   -0.1600
     16 N16        -5.5800    1.7576   51.8541 N.am    1  ZINC000462219577   -0.7400
     17 C17        -4.7993    2.6514   51.2152 C.2     1  ZINC000462219577    0.7100
     18 O18        -5.1523    3.1129   50.1471 O.2     1  ZINC000462219577   -0.5800
     19 N19        -3.6274    3.0337   51.7602 N.am    1  ZINC000462219577   -0.7400
     20 C20        -2.7797    4.0065   51.0666 C.3     1  ZINC000462219577    0.1600
     21 H21        -3.3598    4.5093   50.2928 H       1  ZINC000462219577    0.1000
     22 C22        -2.2595    5.0403   52.0701 C.3     1  ZINC000462219577   -0.1700
     23 C23        -1.3835    4.3355   53.1091 C.3     1  ZINC000462219577    0.0700
     24 O24        -0.3124    3.6596   52.4474 O.3     1  ZINC000462219577   -0.3700
     25 C25        -0.7380    2.6483   51.5316 C.3     1  ZINC000462219577    0.1400
     26 H26        -1.3302    1.9030   52.0625 H       1  ZINC000462219577    0.0600
     27 C27         0.4686    1.9868   50.9171 C.ar    1  ZINC000462219577   -0.0900
     28 C28         1.3343    2.7226   50.1297 C.ar    1  ZINC000462219577   -0.0900
     29 C29         2.4411    2.1157   49.5661 C.ar    1  ZINC000462219577   -0.1200
     30 C30         2.6824    0.7732   49.7901 C.ar    1  ZINC000462219577   -0.1200
     31 C31         1.8171    0.0376   50.5783 C.ar    1  ZINC000462219577   -0.1200
     32 C32         0.7127    0.6455   51.1455 C.ar    1  ZINC000462219577   -0.1100
     33 C33        -1.5893    3.2850   50.4273 C.3     1  ZINC000462219577   -0.1500
     34 C34        -7.5103    2.2695   54.1685 C.2     1  ZINC000462219577   -0.2600
     35 H35        -7.8880    2.9984   57.1527 H       1  ZINC000462219577    0.0800
     36 H36        -8.2642    1.2682   57.3350 H       1  ZINC000462219577    0.0700
     37 H37        -6.6653    1.7733   56.7378 H       1  ZINC000462219577    0.0800
     38 H38       -10.3462   -0.6362   52.7178 H       1  ZINC000462219577    0.1300
     39 H39       -12.3387   -1.0846   51.3445 H       1  ZINC000462219577    0.1300
     40 H40       -13.7862    0.7727   50.6289 H       1  ZINC000462219577    0.1300
     41 H41       -13.2459    3.0827   51.2841 H       1  ZINC000462219577    0.1300
     42 H42       -11.2598    3.5403   52.6637 H       1  ZINC000462219577    0.1300
     43 H43        -8.8240    2.1779   51.0252 H       1  ZINC000462219577    0.0900
     44 H44        -7.5820    3.3507   51.5253 H       1  ZINC000462219577    0.1100
     45 H45        -7.3154   -0.0320   52.8553 H       1  ZINC000462219577    0.0600
     46 H46        -8.1673   -0.3646   51.3283 H       1  ZINC000462219577    0.0700
     47 H47        -6.4395   -0.7611   51.4880 H       1  ZINC000462219577    0.0700
     48 H48        -5.2990    1.3903   52.7068 H       1  ZINC000462219577    0.3900
     49 H49        -3.3453    2.6645   52.6118 H       1  ZINC000462219577    0.3900
     50 H50        -1.6695    5.7920   51.5458 H       1  ZINC000462219577    0.0800
     51 H51        -3.1018    5.5197   52.5689 H       1  ZINC000462219577    0.0800
     52 H52        -0.9758    5.0726   53.8009 H       1  ZINC000462219577    0.1000
     53 H53        -1.9841    3.6123   53.6607 H       1  ZINC000462219577    0.0500
     54 H54         1.1458    3.7715   49.9547 H       1  ZINC000462219577    0.1300
     55 H55         3.1171    2.6905   48.9504 H       1  ZINC000462219577    0.1200
     56 H56         3.5467    0.2989   49.3493 H       1  ZINC000462219577    0.1200
     57 H57         2.0055   -1.0114   50.7531 H       1  ZINC000462219577    0.1200
     58 H58         0.0367    0.0707   51.7612 H       1  ZINC000462219577    0.1200
     59 H59        -1.9510    2.5087   49.7531 H       1  ZINC000462219577    0.0800
     60 H60        -0.9859    4.0012   49.8695 H       1  ZINC000462219577    0.0900
     61 H61        -6.4720    2.5655   54.1386 H       1  ZINC000462219577    0.1500
@<TRIPOS>BOND
     1     1     2    1
     2     1    35    1
     3     1    36    1
     4     1    37    1
     5     2    34    1
     6     2     3    2
     7     3     4    1
     8     4     5    1
     9     4    11    1
    10     5    10   ar
    11     5     6   ar
    12     6     7   ar
    13     6    38    1
    14     7     8   ar
    15     7    39    1
    16     8     9   ar
    17     8    40    1
    18     9    10   ar
    19     9    41    1
    20    10    42    1
    21    11    12    1
    22    11    34    2
    23    12    13    1
    24    12    43    1
    25    12    44    1
    26    13    14    1
    27    13    15    1
    28    13    16    1
    29    15    45    1
    30    15    46    1
    31    15    47    1
    32    16    17   am
    33    16    48    1
    34    17    18    2
    35    17    19   am
    36    19    20    1
    37    19    49    1
    38    20    21    1
    39    20    33    1
    40    20    22    1
    41    22    23    1
    42    22    50    1
    43    22    51    1
    44    23    24    1
    45    23    52    1
    46    23    53    1
    47    24    25    1
    48    25    26    1
    49    25    27    1
    50    25    33    1
    51    27    32   ar
    52    27    28   ar
    53    28    29   ar
    54    28    54    1
    55    29    30   ar
    56    29    55    1
    57    30    31   ar
    58    30    56    1
    59    31    32   ar
    60    31    57    1
    61    32    58    1
    62    33    59    1
    63    33    60    1
    64    34    61    1
@<TRIPOS>SUBSTRUCTURE
     1 ZINC000462219577        1 TEMP              0 ****  ****    0 ROOT


##########                                Name:    ZINC000467185792
##########                DOCK_Rotatable_Bonds:                   9
##########                         Heavy_Atoms:                  29
##########                    Molecular_Weight:             412.513
##########                DOCK_Rotatable_Bonds:                   9
##########                       Formal_Charge:                0.04
##########                     HBond_Acceptors:                   8
##########                        HBond_Donors:                   2
##########                         Heavy_Atoms:                  29
##########                          Grid_Score:          -35.613373
##########                     Grid_vdw_energy:          -35.636154
##########                      Grid_es_energy:            0.022781
##########           Internal_energy_repulsive:           17.196264

@<TRIPOS>MOLECULE
ZINC000467185792
 53 55 1 0 0
SMALL
USER_CHARGES


@<TRIPOS>ATOM
      1 C1         -2.6625    2.9406   50.4153 C.3     1  ZINC000467185792   -0.1500
      2 C2         -4.1255    3.3176   50.6568 C.3     1  ZINC000467185792   -0.1200
      3 C3         -4.5976    2.7085   51.9786 C.3     1  ZINC000467185792    0.0600
      4 O4         -5.8701    3.2568   52.3281 O.3     1  ZINC000467185792   -0.3100
      5 C5         -6.8809    2.3763   52.5524 C.ar    1  ZINC000467185792    0.1400
      6 C6         -7.5454    2.3806   53.7711 C.ar    1  ZINC000467185792   -0.2100
      7 C7         -8.5719    1.4887   54.0018 C.ar    1  ZINC000467185792   -0.0400
      8 C8         -8.9418    0.5823   53.0094 C.ar    1  ZINC000467185792   -0.0600
      9 C9        -10.0457   -0.3780   53.2539 C.2     1  ZINC000467185792    0.1400
     10 C10       -10.3986   -1.3120   52.3529 C.2     1  ZINC000467185792   -0.3000
     11 S11       -11.7388   -2.2420   53.0194 S.3     1  ZINC000467185792    0.2000
     12 C12       -11.6935   -1.2606   54.4811 C.2     1  ZINC000467185792    0.2800
     13 N13       -12.5344   -1.4114   55.5753 N.am    1  ZINC000467185792   -0.6100
     14 C14       -12.4304   -2.5024   56.3598 C.2     1  ZINC000467185792    0.5900
     15 O15       -11.5999   -3.3547   56.1090 O.2     1  ZINC000467185792   -0.4900
     16 C16       -13.3230   -2.6625   57.5212 C.2     1  ZINC000467185792   -0.2400
     17 C17       -13.1138   -1.9478   58.6990 C.2     1  ZINC000467185792    0.0800
     18 C18       -11.9637   -0.9823   58.8268 C.3     1  ZINC000467185792   -0.1200
     19 C19       -10.7221   -1.7300   59.3170 C.3     1  ZINC000467185792   -0.1400
     20 C20       -14.0041   -2.1531   59.7600 C.2     1  ZINC000467185792    0.0600
     21 C21       -13.8136   -1.3995   61.0511 C.3     1  ZINC000467185792   -0.0600
     22 C22       -14.7392   -1.9803   62.1219 C.3     1  ZINC000467185792   -0.1500
     23 N23       -14.9978   -2.9909   59.6407 N.2     1  ZINC000467185792   -0.1800
     24 N24       -15.2191   -3.6643   58.5717 N.am    1  ZINC000467185792   -0.4300
     25 C25       -14.4362   -3.5488   57.4820 C.2     1  ZINC000467185792    0.5000
     26 O26       -14.6711   -4.2020   56.4799 O.2     1  ZINC000467185792   -0.5300
     27 N27       -10.7485   -0.3781   54.3778 N.2     1  ZINC000467185792   -0.5000
     28 C28        -8.2725    0.5805   51.7866 C.ar    1  ZINC000467185792   -0.0600
     29 C29        -7.2504    1.4785   51.5603 C.ar    1  ZINC000467185792   -0.1500
     30 H30        -2.5699    1.8555   50.3690 H       1  ZINC000467185792    0.0600
     31 H31        -2.3262    3.3744   49.4737 H       1  ZINC000467185792    0.0700
     32 H32        -2.0492    3.3230   51.2312 H       1  ZINC000467185792    0.0600
     33 H33        -4.2182    4.4027   50.7032 H       1  ZINC000467185792    0.0700
     34 H34        -4.7387    2.9351   49.8409 H       1  ZINC000467185792    0.0700
     35 H35        -4.6853    1.6274   51.8697 H       1  ZINC000467185792    0.0600
     36 H36        -3.8757    2.9374   52.7625 H       1  ZINC000467185792    0.0600
     37 H37        -7.2581    3.0828   54.5397 H       1  ZINC000467185792    0.1300
     38 H38        -9.0883    1.4923   54.9503 H       1  ZINC000467185792    0.1300
     39 H39        -9.9400   -1.4655   51.3872 H       1  ZINC000467185792    0.1800
     40 H40       -13.1968   -0.7316   55.7753 H       1  ZINC000467185792    0.4400
     41 H41       -11.7572   -0.5326   57.8556 H       1  ZINC000467185792    0.0900
     42 H42       -12.2229   -0.2009   59.5413 H       1  ZINC000467185792    0.1300
     43 H43       -10.9286   -2.1797   60.2882 H       1  ZINC000467185792    0.0600
     44 H44       -10.4629   -2.5114   58.6025 H       1  ZINC000467185792    0.0600
     45 H45        -9.8903   -1.0316   59.4094 H       1  ZINC000467185792    0.0700
     46 H46       -12.7776   -1.4929   61.3768 H       1  ZINC000467185792    0.1000
     47 H47       -14.0524   -0.3473   60.8963 H       1  ZINC000467185792    0.1000
     48 H48       -14.6014   -1.4353   63.0558 H       1  ZINC000467185792    0.0600
     49 H49       -15.7752   -1.8870   61.7962 H       1  ZINC000467185792    0.0600
     50 H50       -14.5004   -3.0325   62.2768 H       1  ZINC000467185792    0.0600
     51 H51       -15.9752   -4.2715   58.5459 H       1  ZINC000467185792    0.4500
     52 H52        -8.5566   -0.1207   51.0159 H       1  ZINC000467185792    0.1300
     53 H53        -6.7317    1.4779   50.6131 H       1  ZINC000467185792    0.1400
@<TRIPOS>BOND
     1     1     2    1
     2     1    30    1
     3     1    31    1
     4     1    32    1
     5     2     3    1
     6     2    33    1
     7     2    34    1
     8     3     4    1
     9     3    35    1
    10     3    36    1
    11     4     5    1
    12     5    29   ar
    13     5     6   ar
    14     6     7   ar
    15     6    37    1
    16     7     8   ar
    17     7    38    1
    18     8     9    1
    19     8    28   ar
    20     9    27    1
    21     9    10    2
    22    10    11    1
    23    10    39    1
    24    11    12    1
    25    12    13    1
    26    12    27    2
    27    13    14   am
    28    13    40    1
    29    14    15    2
    30    14    16    1
    31    16    25    1
    32    16    17    2
    33    17    18    1
    34    17    20    1
    35    18    19    1
    36    18    41    1
    37    18    42    1
    38    19    43    1
    39    19    44    1
    40    19    45    1
    41    20    21    1
    42    20    23    2
    43    21    22    1
    44    21    46    1
    45    21    47    1
    46    22    48    1
    47    22    49    1
    48    22    50    1
    49    23    24    1
    50    24    25   am
    51    24    51    1
    52    25    26    2
    53    28    29   ar
    54    28    52    1
    55    29    53    1
@<TRIPOS>SUBSTRUCTURE
     1 ZINC000467185792        1 TEMP              0 ****  ****    0 ROOT


##########                                Name:    ZINC001191196975
##########                DOCK_Rotatable_Bonds:                  14
##########                         Heavy_Atoms:                  24
##########                    Molecular_Weight:             339.438
##########                DOCK_Rotatable_Bonds:                  14
##########                       Formal_Charge:          0.00999969
##########                     HBond_Acceptors:                   8
##########                        HBond_Donors:                   4
##########                         Heavy_Atoms:                  24
##########                          Grid_Score:          -35.551926
##########                     Grid_vdw_energy:          -34.528481
##########                      Grid_es_energy:           -1.023444
##########           Internal_energy_repulsive:           13.247535

@<TRIPOS>MOLECULE
ZINC001191196975
 53 53 1 0 0
SMALL
USER_CHARGES


@<TRIPOS>ATOM
      1 C1          0.7309    1.7763   51.5002 C.2     1  ZINC001191196975   -0.1600
      2 C2         -0.5009    1.9723   51.1001 C.2     1  ZINC001191196975   -0.1800
      3 C3         -1.3768    2.9674   51.8170 C.3     1  ZINC001191196975    0.1500
      4 N4         -2.7807    2.5733   51.6756 N.am    1  ZINC001191196975   -0.7300
      5 C5         -3.4185    2.7614   50.5034 C.2     1  ZINC001191196975    0.5100
      6 O6         -2.8300    3.2555   49.5652 O.2     1  ZINC001191196975   -0.5200
      7 C7         -4.8632    2.3577   50.3585 C.3     1  ZINC001191196975    0.0300
      8 N8         -5.6701    3.0547   51.3690 N.3     1  ZINC001191196975   -0.5100
      9 C9         -5.5669    4.5117   51.2117 C.3     1  ZINC001191196975    0.0200
     10 C10        -7.0717    2.6176   51.3168 C.3     1  ZINC001191196975    0.0700
     11 H11        -7.5206    2.8660   50.3551 H       1  ZINC001191196975    0.0600
     12 C12        -7.8885    3.2279   52.4863 C.3     1  ZINC001191196975   -0.1200
     13 C13        -9.0238    2.2021   52.6871 C.3     1  ZINC001191196975    0.1000
     14 N14        -8.5621    0.9243   52.1254 N.am    1  ZINC001191196975   -0.6200
     15 C15        -9.2740   -0.2193   52.0859 C.2     1  ZINC001191196975    0.5300
     16 O16        -8.7901   -1.2183   51.5974 O.2     1  ZINC001191196975   -0.5400
     17 C17       -10.6714   -0.2569   52.6489 C.3     1  ZINC001191196975   -0.1300
     18 C18       -11.0614   -1.7054   52.9497 C.3     1  ZINC001191196975   -0.1000
     19 C19       -12.4456   -1.7363   53.6007 C.3     1  ZINC001191196975   -0.1300
     20 C20       -12.5507   -2.9562   54.5181 C.3     1  ZINC001191196975    0.1400
     21 N21       -11.7276   -2.7426   55.7110 N.am    1  ZINC001191196975   -0.7500
     22 C22       -12.0582   -3.3391   56.8734 C.2     1  ZINC001191196975    0.7000
     23 N23       -11.3000   -3.1438   57.9705 N.am    1  ZINC001191196975   -0.8700
     24 O24       -13.0403   -4.0534   56.9325 O.2     1  ZINC001191196975   -0.5900
     25 C25        -7.1916    1.1013   51.6105 C.3     1  ZINC001191196975    0.1100
     26 H26         1.1188    2.3277   52.3440 H       1  ZINC001191196975    0.1000
     27 H27         1.3571    1.0600   50.9892 H       1  ZINC001191196975    0.1000
     28 H28        -0.8890    1.4209   50.2564 H       1  ZINC001191196975    0.1200
     29 H29        -1.1106    2.9906   52.8737 H       1  ZINC001191196975    0.0800
     30 H30        -1.2318    3.9571   51.3840 H       1  ZINC001191196975    0.0700
     31 H31        -3.2510    2.1771   52.4257 H       1  ZINC001191196975    0.4000
     32 H32        -5.2173    2.6254   49.3630 H       1  ZINC001191196975    0.0700
     33 H33        -4.9555    1.2808   50.4996 H       1  ZINC001191196975    0.1100
     34 H34        -5.8192    4.7853   50.1872 H       1  ZINC001191196975    0.0200
     35 H35        -6.2571    5.0011   51.8989 H       1  ZINC001191196975    0.0700
     36 H36        -4.5479    4.8297   51.4324 H       1  ZINC001191196975    0.0900
     37 H37        -7.2762    3.3064   53.3847 H       1  ZINC001191196975    0.0900
     38 H38        -8.2928    4.2011   52.2076 H       1  ZINC001191196975    0.0800
     39 H39        -9.2341    2.0854   53.7502 H       1  ZINC001191196975    0.0700
     40 H40        -9.9206    2.5346   52.1641 H       1  ZINC001191196975    0.0700
     41 H41       -10.7085    0.3277   53.5682 H       1  ZINC001191196975    0.0900
     42 H42       -11.3671    0.1634   51.9227 H       1  ZINC001191196975    0.0900
     43 H43       -11.0838   -2.2759   52.0211 H       1  ZINC001191196975    0.0800
     44 H44       -10.3307   -2.1450   53.6286 H       1  ZINC001191196975    0.0800
     45 H45       -12.5924   -0.8282   54.1855 H       1  ZINC001191196975    0.0700
     46 H46       -13.2101   -1.7972   52.8262 H       1  ZINC001191196975    0.0700
     47 H47       -13.5898   -3.0995   54.8145 H       1  ZINC001191196975    0.0700
     48 H48       -12.1989   -3.8411   53.9876 H       1  ZINC001191196975    0.0700
     49 H49       -10.9447   -2.1718   55.6642 H       1  ZINC001191196975    0.4000
     50 H50       -11.5385   -3.5722   58.8075 H       1  ZINC001191196975    0.4000
     51 H51       -10.5158   -2.5749   57.9230 H       1  ZINC001191196975    0.4200
     52 H52        -7.0524    0.5246   50.6961 H       1  ZINC001191196975    0.0800
     53 H53        -6.4620    0.8025   52.3632 H       1  ZINC001191196975    0.0800
@<TRIPOS>BOND
     1     1     2    2
     2     1    26    1
     3     1    27    1
     4     2     3    1
     5     2    28    1
     6     3     4    1
     7     3    29    1
     8     3    30    1
     9     4     5   am
    10     4    31    1
    11     5     6    2
    12     5     7    1
    13     7     8    1
    14     7    32    1
    15     7    33    1
    16     8     9    1
    17     8    10    1
    18     9    34    1
    19     9    35    1
    20     9    36    1
    21    10    11    1
    22    10    25    1
    23    10    12    1
    24    12    13    1
    25    12    37    1
    26    12    38    1
    27    13    14    1
    28    13    39    1
    29    13    40    1
    30    14    15   am
    31    14    25    1
    32    15    16    2
    33    15    17    1
    34    17    18    1
    35    17    41    1
    36    17    42    1
    37    18    19    1
    38    18    43    1
    39    18    44    1
    40    19    20    1
    41    19    45    1
    42    19    46    1
    43    20    21    1
    44    20    47    1
    45    20    48    1
    46    21    22   am
    47    21    49    1
    48    22    23   am
    49    22    24    2
    50    23    50    1
    51    23    51    1
    52    25    52    1
    53    25    53    1
@<TRIPOS>SUBSTRUCTURE
     1 ZINC001191196975        1 TEMP              0 ****  ****    0 ROOT


##########                                Name:    ZINC000428266315
##########                DOCK_Rotatable_Bonds:                  10
##########                         Heavy_Atoms:                  30
##########                    Molecular_Weight:             423.438
##########                DOCK_Rotatable_Bonds:                  10
##########                       Formal_Charge:          0.00999977
##########                     HBond_Acceptors:                  10
##########                        HBond_Donors:                   0
##########                         Heavy_Atoms:                  30
##########                          Grid_Score:          -35.497532
##########                     Grid_vdw_energy:          -34.066669
##########                      Grid_es_energy:           -1.430862
##########           Internal_energy_repulsive:            9.728590

@<TRIPOS>MOLECULE
ZINC000428266315
 54 56 1 0 0
SMALL
USER_CHARGES


@<TRIPOS>ATOM
      1 C1        -12.6787   -3.3536   55.5135 C.3     1  ZINC000428266315   -0.1500
      2 C2        -12.3345   -2.8780   54.1006 C.3     1  ZINC000428266315    0.0600
      3 O3        -11.4974   -1.7223   54.1778 O.3     1  ZINC000428266315   -0.3700
      4 C4        -11.0503   -1.2427   52.9082 C.3     1  ZINC000428266315    0.1800
      5 H5        -10.6429   -2.0718   52.3295 H       1  ZINC000428266315    0.0900
      6 C6        -12.2284   -0.6240   52.1530 C.3     1  ZINC000428266315   -0.1700
      7 C7         -9.9816   -0.2001   53.1130 C.2     1  ZINC000428266315    0.1700
      8 N8         -9.0237    0.0922   52.2851 N.2     1  ZINC000428266315   -0.3500
      9 O9         -8.3294    0.9759   52.7415 O.3     1  ZINC000428266315    0.0800
     10 C10        -8.7926    1.3425   53.9402 C.2     1  ZINC000428266315    0.1900
     11 C11        -8.2160    2.4066   54.8382 C.3     1  ZINC000428266315    0.1500
     12 N12        -8.0227    1.8573   56.1868 N.3     1  ZINC000428266315   -0.5300
     13 C13        -6.7657    2.3380   56.7758 C.3     1  ZINC000428266315    0.0200
     14 C14        -9.1655    2.1749   57.0534 C.3     1  ZINC000428266315    0.1400
     15 C15        -9.5170    0.9675   57.8838 C.2     1  ZINC000428266315   -0.2300
     16 C16        -8.8427    0.5249   58.9703 C.2     1  ZINC000428266315    0.0800
     17 N17        -9.4743   -0.5774   59.4256 N.pl3   1  ZINC000428266315   -0.3700
     18 C18        -9.0808   -1.3783   60.5874 C.3     1  ZINC000428266315    0.1700
     19 C19        -9.2523   -0.5614   61.8421 C.ar    1  ZINC000428266315   -0.0800
     20 C20       -10.4640    0.0472   62.1105 C.ar    1  ZINC000428266315   -0.1000
     21 C21       -10.6213    0.7966   63.2614 C.ar    1  ZINC000428266315   -0.0700
     22 C22        -9.5669    0.9370   64.1442 C.ar    1  ZINC000428266315   -0.1700
     23 C23        -9.7382    1.7543   65.3987 C.3     1  ZINC000428266315    0.5100
     24 F24        -9.0711    2.9756   65.2542 F       1  ZINC000428266315   -0.1700
     25 F25       -11.0994    1.9898   65.6196 F       1  ZINC000428266315   -0.1800
     26 F26        -9.2030    1.0565   66.4866 F       1  ZINC000428266315   -0.1800
     27 C27        -8.3555    0.3272   63.8765 C.ar    1  ZINC000428266315   -0.0700
     28 C28        -8.1994   -0.4254   62.7275 C.ar    1  ZINC000428266315   -0.0800
     29 N29       -10.5731   -0.8202   58.5912 N.2     1  ZINC000428266315   -0.2900
     30 C30       -10.6011    0.1097   57.6713 C.2     1  ZINC000428266315    0.0600
     31 N31        -9.8477    0.6029   54.1836 N.2     1  ZINC000428266315   -0.4600
     32 H32       -13.3173   -4.2350   55.4547 H       1  ZINC000428266315    0.0700
     33 H33       -11.7613   -3.6044   56.0460 H       1  ZINC000428266315    0.0600
     34 H34       -13.2028   -2.5602   56.0464 H       1  ZINC000428266315    0.0600
     35 H35       -11.8104   -3.6714   53.5678 H       1  ZINC000428266315    0.0500
     36 H36       -13.2520   -2.6271   53.5682 H       1  ZINC000428266315    0.0500
     37 H37       -12.6358    0.2050   52.7317 H       1  ZINC000428266315    0.0700
     38 H38       -11.8874   -0.2582   51.1846 H       1  ZINC000428266315    0.0700
     39 H39       -13.0013   -1.3782   52.0048 H       1  ZINC000428266315    0.0700
     40 H40        -7.2570    2.7378   54.4398 H       1  ZINC000428266315    0.0800
     41 H41        -8.9015    3.2528   54.8854 H       1  ZINC000428266315    0.1200
     42 H42        -6.7878    3.4259   56.8413 H       1  ZINC000428266315    0.0400
     43 H43        -6.6475    1.9163   57.7739 H       1  ZINC000428266315    0.0800
     44 H44        -5.9292    2.0287   56.1492 H       1  ZINC000428266315    0.0600
     45 H45        -8.9036    3.0042   57.7107 H       1  ZINC000428266315    0.0500
     46 H46       -10.0210    2.4547   56.4387 H       1  ZINC000428266315    0.0900
     47 H47        -7.9575    0.9733   59.3968 H       1  ZINC000428266315    0.1700
     48 H48        -9.7077   -2.2681   60.6446 H       1  ZINC000428266315    0.1000
     49 H49        -8.0368   -1.6753   60.4871 H       1  ZINC000428266315    0.1100
     50 H50       -11.2878   -0.0624   61.4207 H       1  ZINC000428266315    0.1300
     51 H51       -11.5679    1.2727   63.4707 H       1  ZINC000428266315    0.1400
     52 H52        -7.5318    0.4366   64.5665 H       1  ZINC000428266315    0.1400
     53 H53        -7.2530   -0.9018   62.5184 H       1  ZINC000428266315    0.1400
     54 H54       -11.3308    0.1957   56.8798 H       1  ZINC000428266315    0.1800
@<TRIPOS>BOND
     1     1     2    1
     2     1    32    1
     3     1    33    1
     4     1    34    1
     5     2     3    1
     6     2    35    1
     7     2    36    1
     8     3     4    1
     9     4     5    1
    10     4     6    1
    11     4     7    1
    12     6    37    1
    13     6    38    1
    14     6    39    1
    15     7    31    1
    16     7     8    2
    17     8     9    1
    18     9    10    1
    19    10    11    1
    20    10    31    2
    21    11    12    1
    22    11    40    1
    23    11    41    1
    24    12    13    1
    25    12    14    1
    26    13    42    1
    27    13    43    1
    28    13    44    1
    29    14    15    1
    30    14    45    1
    31    14    46    1
    32    15    30    1
    33    15    16    2
    34    16    17    1
    35    16    47    1
    36    17    18    1
    37    17    29    1
    38    18    19    1
    39    18    48    1
    40    18    49    1
    41    19    28   ar
    42    19    20   ar
    43    20    21   ar
    44    20    50    1
    45    21    22   ar
    46    21    51    1
    47    22    23    1
    48    22    27   ar
    49    23    24    1
    50    23    25    1
    51    23    26    1
    52    27    28   ar
    53    27    52    1
    54    28    53    1
    55    29    30    2
    56    30    54    1
@<TRIPOS>SUBSTRUCTURE
     1 ZINC000428266315        1 TEMP              0 ****  ****    0 ROOT


##########                                Name:    ZINC000465642058
##########                DOCK_Rotatable_Bonds:                  10
##########                         Heavy_Atoms:                  31
##########                    Molecular_Weight:             420.511
##########                DOCK_Rotatable_Bonds:                  10
##########                       Formal_Charge:          1.2666e-07
##########                     HBond_Acceptors:                   7
##########                        HBond_Donors:                   2
##########                         Heavy_Atoms:                  31
##########                          Grid_Score:          -35.445206
##########                     Grid_vdw_energy:          -35.346107
##########                      Grid_es_energy:           -0.099097
##########           Internal_energy_repulsive:           16.007057

@<TRIPOS>MOLECULE
ZINC000465642058
 59 62 1 0 0
SMALL
USER_CHARGES


@<TRIPOS>ATOM
      1 C1         -8.5573    5.0995   50.1097 C.3     1  ZINC000465642058   -0.1500
      2 C2         -7.2594    4.3851   50.4919 C.3     1  ZINC000465642058    0.0500
      3 O3         -7.3634    3.8912   51.8287 O.3     1  ZINC000465642058   -0.3000
      4 C4         -7.7573    2.5985   51.9803 C.ar    1  ZINC000465642058    0.1200
      5 C5         -9.1000    2.2944   52.1550 C.ar    1  ZINC000465642058   -0.1600
      6 C6         -9.4937    0.9832   52.3068 C.ar    1  ZINC000465642058   -0.1300
      7 C7         -8.5630   -0.0470   52.2813 C.ar    1  ZINC000465642058    0.0700
      8 C8         -7.2164    0.2647   52.1104 C.ar    1  ZINC000465642058   -0.0700
      9 C9         -6.8198    1.5764   51.9554 C.ar    1  ZINC000465642058   -0.1100
     10 C10        -5.3600    1.9018   51.7705 C.3     1  ZINC000465642058    0.1900
     11 N11        -4.9147    2.7815   52.8540 N.am    1  ZINC000465642058   -0.7300
     12 C12        -3.8171    3.5468   52.6928 C.2     1  ZINC000465642058    0.7100
     13 O13        -3.1957    3.5060   51.6484 O.2     1  ZINC000465642058   -0.5900
     14 N14        -3.4084    4.3573   53.6889 N.am    1  ZINC000465642058   -0.6200
     15 C15        -4.1583    4.4078   54.9465 C.3     1  ZINC000465642058    0.1900
     16 C16        -3.5672    3.4245   55.9236 C.2     1  ZINC000465642058    0.0500
     17 N17        -3.0878    2.2435   55.6283 N.2     1  ZINC000465642058   -0.2700
     18 N18        -2.6355    1.6462   56.8120 N.pl3   1  ZINC000465642058   -0.4700
     19 C19        -2.8604    2.5091   57.8248 C.2     1  ZINC000465642058    0.0600
     20 C20        -3.4307    3.6193   57.3020 C.2     1  ZINC000465642058   -0.2600
     21 C21        -2.2143    5.1880   53.5143 C.3     1  ZINC000465642058    0.1700
     22 C22        -0.9819    4.3456   53.7209 C.ar    1  ZINC000465642058   -0.1100
     23 C23        -0.3654    3.7458   52.6387 C.ar    1  ZINC000465642058   -0.0900
     24 C24         0.7651    2.9731   52.8282 C.ar    1  ZINC000465642058   -0.1200
     25 C25         1.2792    2.8005   54.0998 C.ar    1  ZINC000465642058   -0.1200
     26 C26         0.6632    3.4011   55.1817 C.ar    1  ZINC000465642058   -0.1300
     27 C27        -0.4647    4.1773   54.9917 C.ar    1  ZINC000465642058   -0.1100
     28 O28        -9.1663   -1.2599   52.4264 O.3     1  ZINC000465642058   -0.3000
     29 C29       -10.4723   -1.0733   52.9978 C.3     1  ZINC000465642058    0.0800
     30 H30       -10.4277   -1.1174   54.0860 H       1  ZINC000465642058    0.0900
     31 C31       -11.4549   -2.1130   52.4551 C.3     1  ZINC000465642058   -0.1500
     32 C32       -10.8540    0.3483   52.5220 C.3     1  ZINC000465642058   -0.1100
     33 H33        -8.7285    5.9319   50.7923 H       1  ZINC000465642058    0.0700
     34 H34        -8.4780    5.4762   49.0900 H       1  ZINC000465642058    0.0800
     35 H35        -9.3901    4.3992   50.1745 H       1  ZINC000465642058    0.0700
     36 H36        -7.0882    3.5527   49.8093 H       1  ZINC000465642058    0.0600
     37 H37        -6.4266    5.0854   50.4270 H       1  ZINC000465642058    0.0600
     38 H38        -9.8356    3.0850   52.1723 H       1  ZINC000465642058    0.1300
     39 H39        -6.4798   -0.5249   52.0949 H       1  ZINC000465642058    0.1400
     40 H40        -4.7774    0.9808   51.7876 H       1  ZINC000465642058    0.0700
     41 H41        -5.2181    2.4037   50.8134 H       1  ZINC000465642058    0.0800
     42 H42        -5.4099    2.8132   53.6875 H       1  ZINC000465642058    0.4000
     43 H43        -4.1011    5.4132   55.3634 H       1  ZINC000465642058    0.1000
     44 H44        -5.2008    4.1511   54.7584 H       1  ZINC000465642058    0.0900
     45 H45        -2.2321    0.7675   56.8898 H       1  ZINC000465642058    0.4400
     46 H46        -2.6235    2.3449   58.8657 H       1  ZINC000465642058    0.1800
     47 H47        -3.7331    4.4978   57.8526 H       1  ZINC000465642058    0.1500
     48 H48        -2.2053    5.6041   52.5069 H       1  ZINC000465642058    0.0900
     49 H49        -2.2263    5.9990   54.2424 H       1  ZINC000465642058    0.0900
     50 H50        -0.7671    3.8805   51.6454 H       1  ZINC000465642058    0.1300
     51 H51         1.2463    2.5038   51.9829 H       1  ZINC000465642058    0.1200
     52 H52         2.1620    2.1963   54.2479 H       1  ZINC000465642058    0.1200
     53 H53         1.0647    3.2661   56.1752 H       1  ZINC000465642058    0.1200
     54 H54        -0.9460    4.6466   55.8370 H       1  ZINC000465642058    0.1200
     55 H55       -11.1144   -3.1118   52.7278 H       1  ZINC000465642058    0.0700
     56 H56       -12.4425   -1.9367   52.8813 H       1  ZINC000465642058    0.0800
     57 H57       -11.5078   -2.0310   51.3694 H       1  ZINC000465642058    0.0700
     58 H58       -11.4143    0.8793   53.2916 H       1  ZINC000465642058    0.0900
     59 H59       -11.4173    0.3089   51.5897 H       1  ZINC000465642058    0.1000
@<TRIPOS>BOND
     1     1     2    1
     2     1    33    1
     3     1    34    1
     4     1    35    1
     5     2     3    1
     6     2    36    1
     7     2    37    1
     8     3     4    1
     9     4     9   ar
    10     4     5   ar
    11     5     6   ar
    12     5    38    1
    13     6    32    1
    14     6     7   ar
    15     7     8   ar
    16     7    28    1
    17     8     9   ar
    18     8    39    1
    19     9    10    1
    20    10    11    1
    21    10    40    1
    22    10    41    1
    23    11    12   am
    24    11    42    1
    25    12    13    2
    26    12    14   am
    27    14    15    1
    28    14    21    1
    29    15    16    1
    30    15    43    1
    31    15    44    1
    32    16    20    1
    33    16    17    2
    34    17    18    1
    35    18    19    1
    36    18    45    1
    37    19    20    2
    38    19    46    1
    39    20    47    1
    40    21    22    1
    41    21    48    1
    42    21    49    1
    43    22    27   ar
    44    22    23   ar
    45    23    24   ar
    46    23    50    1
    47    24    25   ar
    48    24    51    1
    49    25    26   ar
    50    25    52    1
    51    26    27   ar
    52    26    53    1
    53    27    54    1
    54    28    29    1
    55    29    30    1
    56    29    31    1
    57    29    32    1
    58    31    55    1
    59    31    56    1
    60    31    57    1
    61    32    58    1
    62    32    59    1
@<TRIPOS>SUBSTRUCTURE
     1 ZINC000465642058        1 TEMP              0 ****  ****    0 ROOT


##########                                Name:    ZINC000011620562
##########                DOCK_Rotatable_Bonds:                   9
##########                         Heavy_Atoms:                  29
##########                    Molecular_Weight:             417.448
##########                DOCK_Rotatable_Bonds:                   9
##########                       Formal_Charge:           0.0299999
##########                     HBond_Acceptors:                  12
##########                        HBond_Donors:                   1
##########                         Heavy_Atoms:                  29
##########                          Grid_Score:          -35.430973
##########                     Grid_vdw_energy:          -30.777454
##########                      Grid_es_energy:           -4.653519
##########           Internal_energy_repulsive:           11.060580

@<TRIPOS>MOLECULE
ZINC000011620562
 48 50 1 0 0
SMALL
USER_CHARGES


@<TRIPOS>ATOM
      1 C1         -7.2277    2.1822   65.7005 C.3     1  ZINC000011620562    0.0400
      2 O2         -7.5739    1.0135   66.4895 O.3     1  ZINC000011620562   -0.3500
      3 C3         -7.9743   -0.0780   65.8185 C.2     1  ZINC000011620562    0.4600
      4 O4         -8.2482   -1.0898   66.4193 O.2     1  ZINC000011620562   -0.5000
      5 C5         -8.0822   -0.0413   64.3159 C.3     1  ZINC000011620562    0.1300
      6 N6         -9.4300    0.3868   63.9334 N.am    1  ZINC000011620562   -0.7200
      7 C7        -10.0069   -0.1150   62.8234 C.2     1  ZINC000011620562    0.5400
      8 O8         -9.4107   -0.9220   62.1420 O.2     1  ZINC000011620562   -0.5200
      9 C9        -11.3926    0.3268   62.4290 C.3     1  ZINC000011620562   -0.1600
     10 S10       -12.0466   -0.7936   61.1668 S.3     1  ZINC000011620562    0.1400
     11 C11       -13.7087   -0.2158   61.0763 C.2     1  ZINC000011620562    0.2100
     12 N12       -14.3062    0.5847   61.9330 N.2     1  ZINC000011620562   -0.3400
     13 N13       -15.5174    0.8086   61.5697 N.2     1  ZINC000011620562   -0.0300
     14 N14       -15.7811    0.1808   60.4752 N.2     1  ZINC000011620562   -0.0800
     15 N15       -14.6113   -0.5072   60.1080 N.pl3   1  ZINC000011620562   -0.2600
     16 C16       -14.4206   -1.3286   58.9803 C.2     1  ZINC000011620562   -0.1300
     17 C17       -14.9719   -2.5474   58.7819 C.2     1  ZINC000011620562    0.2500
     18 C18       -15.8978   -3.2618   59.7322 C.3     1  ZINC000011620562   -0.1100
     19 N19       -14.5454   -3.0214   57.5705 N.pl3   1  ZINC000011620562   -0.3700
     20 C20       -14.9109   -4.3094   56.9757 C.3     1  ZINC000011620562    0.0900
     21 N21       -13.6998   -2.0628   56.9973 N.am    1  ZINC000011620562   -0.3600
     22 C22       -13.0566   -2.1660   55.7599 C.ar    1  ZINC000011620562    0.1400
     23 C23       -13.4943   -1.4064   54.6825 C.ar    1  ZINC000011620562   -0.1300
     24 C24       -12.8565   -1.5102   53.4620 C.ar    1  ZINC000011620562   -0.1000
     25 C25       -11.7833   -2.3692   53.3118 C.ar    1  ZINC000011620562   -0.1100
     26 C26       -11.3453   -3.1272   54.3822 C.ar    1  ZINC000011620562   -0.1000
     27 C27       -11.9750   -3.0238   55.6071 C.ar    1  ZINC000011620562   -0.1000
     28 C28       -13.6210   -1.0205   57.8493 C.2     1  ZINC000011620562    0.5500
     29 O29       -12.9746   -0.0022   57.6817 O.2     1  ZINC000011620562   -0.5000
     30 H30        -8.0939    2.4974   65.1186 H       1  ZINC000011620562    0.0700
     31 H31        -6.9219    2.9910   66.3642 H       1  ZINC000011620562    0.1100
     32 H32        -6.4074    1.9355   65.0264 H       1  ZINC000011620562    0.0700
     33 H33        -7.3508    0.6612   63.9161 H       1  ZINC000011620562    0.1200
     34 H34        -7.8888   -1.0356   63.9132 H       1  ZINC000011620562    0.1200
     35 H35        -9.9073    1.0313   64.4790 H       1  ZINC000011620562    0.4200
     36 H36       -12.0428    0.3078   63.3037 H       1  ZINC000011620562    0.1400
     37 H37       -11.3510    1.3399   62.0291 H       1  ZINC000011620562    0.1400
     38 H38       -16.0598   -2.6437   60.6153 H       1  ZINC000011620562    0.1000
     39 H39       -16.8518   -3.4479   59.2390 H       1  ZINC000011620562    0.1000
     40 H40       -15.4515   -4.2107   60.0298 H       1  ZINC000011620562    0.1000
     41 H41       -15.5535   -4.8582   57.6642 H       1  ZINC000011620562    0.1100
     42 H42       -15.4428   -4.1394   56.0396 H       1  ZINC000011620562    0.0900
     43 H43       -14.0085   -4.8888   56.7809 H       1  ZINC000011620562    0.0900
     44 H44       -14.3327   -0.7356   54.7992 H       1  ZINC000011620562    0.1300
     45 H45       -13.1967   -0.9201   52.6237 H       1  ZINC000011620562    0.1300
     46 H46       -11.2863   -2.4485   52.3562 H       1  ZINC000011620562    0.1300
     47 H47       -10.5073   -3.7976   54.2614 H       1  ZINC000011620562    0.1400
     48 H48       -11.6322   -3.6158   56.4427 H       1  ZINC000011620562    0.1400
@<TRIPOS>BOND
     1     1     2    1
     2     1    30    1
     3     1    31    1
     4     1    32    1
     5     2     3    1
     6     3     4    2
     7     3     5    1
     8     5     6    1
     9     5    33    1
    10     5    34    1
    11     6     7   am
    12     6    35    1
    13     7     8    2
    14     7     9    1
    15     9    10    1
    16     9    36    1
    17     9    37    1
    18    10    11    1
    19    11    15    1
    20    11    12    2
    21    12    13    1
    22    13    14    2
    23    14    15    1
    24    15    16    1
    25    16    28    1
    26    16    17    2
    27    17    18    1
    28    17    19    1
    29    18    38    1
    30    18    39    1
    31    18    40    1
    32    19    20    1
    33    19    21    1
    34    20    41    1
    35    20    42    1
    36    20    43    1
    37    21    22    1
    38    21    28   am
    39    22    27   ar
    40    22    23   ar
    41    23    24   ar
    42    23    44    1
    43    24    25   ar
    44    24    45    1
    45    25    26   ar
    46    25    46    1
    47    26    27   ar
    48    26    47    1
    49    27    48    1
    50    28    29    2
@<TRIPOS>SUBSTRUCTURE
     1 ZINC000011620562        1 TEMP              0 ****  ****    0 ROOT


##########                                Name:    ZINC001596273020
##########                DOCK_Rotatable_Bonds:                  11
##########                         Heavy_Atoms:                  25
##########                    Molecular_Weight:             355.478
##########                DOCK_Rotatable_Bonds:                  11
##########                       Formal_Charge:          -0.0499996
##########                     HBond_Acceptors:                   7
##########                        HBond_Donors:                   2
##########                         Heavy_Atoms:                  25
##########                          Grid_Score:          -35.395344
##########                     Grid_vdw_energy:          -31.261412
##########                      Grid_es_energy:           -4.133932
##########           Internal_energy_repulsive:           23.153818

@<TRIPOS>MOLECULE
ZINC001596273020
 58 59 1 0 0
SMALL
USER_CHARGES


@<TRIPOS>ATOM
      1 C1         -9.8231    2.8832   65.0737 C.3     1  ZINC001596273020   -0.1900
      2 C2         -9.5634    1.4814   64.5182 C.3     1  ZINC001596273020   -0.0200
      3 N3         -8.2002    1.4148   63.9749 N.4     1  ZINC001596273020   -0.3900
      4 H4         -8.0897    2.1153   63.2570 H       1  ZINC001596273020    0.4300
      5 C5         -7.2314    1.6601   65.0516 C.3     1  ZINC001596273020   -0.0100
      6 C6         -7.4699    0.6647   66.1886 C.3     1  ZINC001596273020   -0.1900
      7 C7         -7.9667    0.0834   63.3999 C.3     1  ZINC001596273020   -0.0100
      8 C8         -8.7976   -0.0745   62.1249 C.3     1  ZINC001596273020    0.0300
      9 O9         -8.4275   -1.2852   61.4621 O.3     1  ZINC001596273020   -0.3900
     10 C10        -8.9101   -1.3844   60.1207 C.3     1  ZINC001596273020    0.0500
     11 C11       -10.3740   -1.8289   60.1371 C.3     1  ZINC001596273020    0.1400
     12 N12       -10.7619   -2.2819   58.7990 N.am    1  ZINC001596273020   -0.7500
     13 C13       -11.2368   -1.3977   57.8995 C.2     1  ZINC001596273020    0.7200
     14 O14       -11.3448   -0.2243   58.1991 O.2     1  ZINC001596273020   -0.6000
     15 N15       -11.5921   -1.8142   56.6680 N.am    1  ZINC001596273020   -0.6300
     16 C16       -11.5405   -3.1941   56.1250 C.3     1  ZINC001596273020    0.1100
     17 C17       -12.8664   -3.3197   55.3205 C.3     1  ZINC001596273020   -0.0800
     18 H18       -12.7145   -3.9720   54.4605 H       1  ZINC001596273020    0.1200
     19 C19       -13.9047   -3.9246   56.2442 C.3     1  ZINC001596273020   -0.1000
     20 C20       -15.3217   -3.4751   55.9166 C.3     1  ZINC001596273020   -0.1200
     21 C21       -15.3711   -1.9449   56.0202 C.3     1  ZINC001596273020   -0.1200
     22 C22       -14.5353   -1.3779   54.8772 C.3     1  ZINC001596273020   -0.0800
     23 C23       -13.1406   -1.9086   54.8490 C.3     1  ZINC001596273020   -0.1400
     24 C24       -12.7229   -1.8850   53.4013 C.2     1  ZINC001596273020    0.5000
     25 O25       -13.3109   -1.1689   52.6088 O.co2   1  ZINC001596273020   -0.6900
     26 O26       -11.7971   -2.5820   53.0224 O.co2   1  ZINC001596273020   -0.6900
     27 C27       -12.1287   -0.9975   55.5522 C.3     1  ZINC001596273020    0.1600
     28 H28        -9.1810    3.0564   65.9373 H       1  ZINC001596273020    0.0800
     29 H29        -9.6060    3.6247   64.3050 H       1  ZINC001596273020    0.0800
     30 H30       -10.8674    2.9669   65.3748 H       1  ZINC001596273020    0.1000
     31 H31        -9.6723    0.7480   65.3172 H       1  ZINC001596273020    0.1300
     32 H32       -10.2810    1.2657   63.7266 H       1  ZINC001596273020    0.1300
     33 H33        -6.2198    1.5354   64.6655 H       1  ZINC001596273020    0.1300
     34 H34        -7.3544    2.6762   65.4265 H       1  ZINC001596273020    0.1300
     35 H35        -8.4386    0.8624   66.6475 H       1  ZINC001596273020    0.0800
     36 H36        -7.4561   -0.3504   65.7917 H       1  ZINC001596273020    0.0800
     37 H37        -6.6846    0.7729   66.9369 H       1  ZINC001596273020    0.1000
     38 H38        -6.9092   -0.0287   63.1607 H       1  ZINC001596273020    0.1400
     39 H39        -8.2591   -0.6801   64.1210 H       1  ZINC001596273020    0.1400
     40 H40        -9.8560   -0.1106   62.3830 H       1  ZINC001596273020    0.1000
     41 H41        -8.6135    0.7725   61.4640 H       1  ZINC001596273020    0.0700
     42 H42        -8.8310   -0.4126   59.6334 H       1  ZINC001596273020    0.0700
     43 H43        -8.3146   -2.1150   59.5735 H       1  ZINC001596273020    0.0700
     44 H44       -10.4976   -2.6463   60.8475 H       1  ZINC001596273020    0.0900
     45 H45       -11.0048   -0.9911   60.4341 H       1  ZINC001596273020    0.0700
     46 H46       -10.6768   -3.2182   58.5603 H       1  ZINC001596273020    0.3900
     47 H47       -10.6798   -3.3157   55.4673 H       1  ZINC001596273020    0.0700
     48 H48       -11.5122   -3.9239   56.9342 H       1  ZINC001596273020    0.0600
     49 H49       -13.8538   -5.0106   56.1668 H       1  ZINC001596273020    0.0500
     50 H50       -13.6729   -3.6365   57.2696 H       1  ZINC001596273020    0.0400
     51 H51       -15.5812   -3.7842   54.9041 H       1  ZINC001596273020    0.0700
     52 H52       -16.0211   -3.9152   56.6273 H       1  ZINC001596273020    0.0500
     53 H53       -16.4016   -1.6014   55.9305 H       1  ZINC001596273020    0.0600
     54 H54       -14.9557   -1.6254   56.9759 H       1  ZINC001596273020    0.0500
     55 H55       -15.0228   -1.6211   53.9331 H       1  ZINC001596273020    0.0600
     56 H56       -14.4949   -0.2933   54.9779 H       1  ZINC001596273020    0.0600
     57 H57       -12.6230   -0.1041   55.9337 H       1  ZINC001596273020    0.0700
     58 H58       -11.3240   -0.7251   54.8691 H       1  ZINC001596273020    0.0700
@<TRIPOS>BOND
     1     1     2    1
     2     1    28    1
     3     1    29    1
     4     1    30    1
     5     2     3    1
     6     2    31    1
     7     2    32    1
     8     3     4    1
     9     3     5    1
    10     3     7    1
    11     5     6    1
    12     5    33    1
    13     5    34    1
    14     6    35    1
    15     6    36    1
    16     6    37    1
    17     7     8    1
    18     7    38    1
    19     7    39    1
    20     8     9    1
    21     8    40    1
    22     8    41    1
    23     9    10    1
    24    10    11    1
    25    10    42    1
    26    10    43    1
    27    11    12    1
    28    11    44    1
    29    11    45    1
    30    12    13   am
    31    12    46    1
    32    13    14    2
    33    13    15   am
    34    15    27    1
    35    15    16    1
    36    16    17    1
    37    16    47    1
    38    16    48    1
    39    17    18    1
    40    17    23    1
    41    17    19    1
    42    19    20    1
    43    19    49    1
    44    19    50    1
    45    20    21    1
    46    20    51    1
    47    20    52    1
    48    21    22    1
    49    21    53    1
    50    21    54    1
    51    22    23    1
    52    22    55    1
    53    22    56    1
    54    23    24    1
    55    23    27    1
    56    24    25   ar
    57    24    26   ar
    58    27    57    1
    59    27    58    1
@<TRIPOS>SUBSTRUCTURE
     1 ZINC001596273020        1 TEMP              0 ****  ****    0 ROOT


##########                                Name:    ZINC000621594459
##########                DOCK_Rotatable_Bonds:                  10
##########                         Heavy_Atoms:                  25
##########                    Molecular_Weight:             389.497
##########                DOCK_Rotatable_Bonds:                  10
##########                       Formal_Charge:         -7.7486e-07
##########                     HBond_Acceptors:                  10
##########                        HBond_Donors:                   3
##########                         Heavy_Atoms:                  25
##########                          Grid_Score:          -35.344303
##########                     Grid_vdw_energy:          -32.250126
##########                      Grid_es_energy:           -3.094179
##########           Internal_energy_repulsive:            5.621915

@<TRIPOS>MOLECULE
ZINC000621594459
 48 49 1 0 0
SMALL
USER_CHARGES


@<TRIPOS>ATOM
      1 C1        -13.7871   -5.1182   56.5779 C.3     1  ZINC000621594459   -0.1600
      2 C2        -13.6832   -3.6161   56.3063 C.3     1  ZINC000621594459    0.1300
      3 C3        -15.0060   -3.1097   55.7278 C.3     1  ZINC000621594459   -0.1800
      4 N4        -13.3966   -2.9121   57.5587 N.am    1  ZINC000621594459   -1.1100
      5 S5        -11.8291   -2.6063   57.9967 S.o2    1  ZINC000621594459    2.6200
      6 O6        -11.2594   -3.8948   58.1823 O.2     1  ZINC000621594459   -0.9500
      7 O7        -11.3474   -1.7310   56.9862 O.2     1  ZINC000621594459   -0.9400
      8 C8        -11.9638   -1.7353   59.5821 C.3     1  ZINC000621594459   -0.6600
      9 C9        -10.5806   -1.6363   60.2287 C.3     1  ZINC000621594459    0.1300
     10 N10       -10.6977   -0.9827   61.5345 N.am    1  ZINC000621594459   -0.7200
     11 C11        -9.6286   -0.3688   62.0791 C.2     1  ZINC000621594459    0.5600
     12 O12        -8.5677   -0.3562   61.4861 O.2     1  ZINC000621594459   -0.5200
     13 C13        -9.7463    0.2894   63.3978 C.ar    1  ZINC000621594459   -0.1500
     14 C14       -10.8243    1.1342   63.6656 C.ar    1  ZINC000621594459   -0.0300
     15 C15       -10.9285    1.7450   64.8985 C.ar    1  ZINC000621594459   -0.1400
     16 C16        -9.9670    1.5218   65.8678 C.ar    1  ZINC000621594459    0.0100
     17 C17        -8.8954    0.6857   65.6084 C.ar    1  ZINC000621594459   -0.6800
     18 S18        -7.6759    0.4088   66.8498 S.o2    1  ZINC000621594459    2.7000
     19 O19        -7.9592    1.3216   67.9014 O.2     1  ZINC000621594459   -0.9400
     20 O20        -7.6080   -0.9980   67.0388 O.2     1  ZINC000621594459   -0.9500
     21 N21        -6.2167    0.8661   66.2141 N.am    1  ZINC000621594459   -1.0900
     22 C22        -6.0121    2.2467   65.7688 C.3     1  ZINC000621594459    0.0800
     23 C23        -4.8702    3.0350   66.4134 C.3     1  ZINC000621594459   -0.1800
     24 C24        -4.7442    2.5500   64.9678 C.3     1  ZINC000621594459   -0.1900
     25 C25        -8.7826    0.0641   64.3823 C.ar    1  ZINC000621594459    0.0400
     26 H26       -14.0004   -5.6420   55.6461 H       1  ZINC000621594459    0.0700
     27 H27       -12.8448   -5.4789   56.9900 H       1  ZINC000621594459    0.0700
     28 H28       -14.5903   -5.3038   57.2911 H       1  ZINC000621594459    0.0600
     29 H29       -12.8800   -3.4305   55.5931 H       1  ZINC000621594459    0.0900
     30 H30       -15.8091   -3.2952   56.4410 H       1  ZINC000621594459    0.0700
     31 H31       -14.9320   -2.0395   55.5344 H       1  ZINC000621594459    0.0600
     32 H32       -15.2193   -3.6335   54.7960 H       1  ZINC000621594459    0.0700
     33 H33       -14.1250   -2.6251   58.1314 H       1  ZINC000621594459    0.4200
     34 H34       -12.3587   -0.7335   59.4139 H       1  ZINC000621594459    0.1400
     35 H35       -12.6350   -2.2844   60.2424 H       1  ZINC000621594459    0.1400
     36 H36       -10.1680   -2.6368   60.3589 H       1  ZINC000621594459    0.0900
     37 H37        -9.9208   -1.0518   59.5876 H       1  ZINC000621594459    0.0900
     38 H38       -11.5447   -0.9917   62.0072 H       1  ZINC000621594459    0.4000
     39 H39       -11.5753    1.3097   62.9095 H       1  ZINC000621594459    0.1300
     40 H40       -11.7623    2.3989   65.1071 H       1  ZINC000621594459    0.1400
     41 H41       -10.0530    2.0026   66.8310 H       1  ZINC000621594459    0.1500
     42 H42        -5.4975    0.2198   66.1367 H       1  ZINC000621594459    0.4200
     43 H43        -6.9168    2.7947   65.5057 H       1  ZINC000621594459    0.1400
     44 H44        -5.0236    4.1021   66.5747 H       1  ZINC000621594459    0.1100
     45 H45        -4.2713    2.5265   67.1688 H       1  ZINC000621594459    0.1000
     46 H46        -4.0624    1.7223   64.7722 H       1  ZINC000621594459    0.1000
     47 H47        -4.8148    3.2979   64.1780 H       1  ZINC000621594459    0.1000
     48 H48        -7.9460   -0.5886   64.1812 H       1  ZINC000621594459    0.1600
@<TRIPOS>BOND
     1     1     2    1
     2     1    26    1
     3     1    27    1
     4     1    28    1
     5     2     3    1
     6     2     4    1
     7     2    29    1
     8     3    30    1
     9     3    31    1
    10     3    32    1
    11     4     5   am
    12     4    33    1
    13     5     6    2
    14     5     7    2
    15     5     8    1
    16     8     9    1
    17     8    34    1
    18     8    35    1
    19     9    10    1
    20     9    36    1
    21     9    37    1
    22    10    11   am
    23    10    38    1
    24    11    12    2
    25    11    13    1
    26    13    25   ar
    27    13    14   ar
    28    14    15   ar
    29    14    39    1
    30    15    16   ar
    31    15    40    1
    32    16    17   ar
    33    16    41    1
    34    17    18    1
    35    17    25   ar
    36    18    19    2
    37    18    20    2
    38    18    21   am
    39    21    22    1
    40    21    42    1
    41    22    24    1
    42    22    23    1
    43    22    43    1
    44    23    24    1
    45    23    44    1
    46    23    45    1
    47    24    46    1
    48    24    47    1
    49    25    48    1
@<TRIPOS>SUBSTRUCTURE
     1 ZINC000621594459        1 TEMP              0 ****  ****    0 ROOT


##########                                Name:     oleObject42.pdb
##########                DOCK_Rotatable_Bonds:                   9
##########                         Heavy_Atoms:                  36
##########                    Molecular_Weight:             527.493
##########                DOCK_Rotatable_Bonds:                   9
##########                       Formal_Charge:         9.99384e-05
##########                     HBond_Acceptors:                   8
##########                        HBond_Donors:                   0
##########                         Heavy_Atoms:                  36
##########                          Grid_Score:          -35.307728
##########                     Grid_vdw_energy:          -35.242302
##########                      Grid_es_energy:           -0.065426
##########           Internal_energy_repulsive:           43.935146

@<TRIPOS>MOLECULE
oleObject42.pdb
 68 71 1 0 0
SMALL
NO_CHARGES


@<TRIPOS>ATOM
      1 C          -1.9557    5.1712   51.0013 C.ar    1  UNL        -0.0435
      2 C          -2.3991    3.9258   50.5331 C.ar    1  UNL        -0.0559
      3 C          -3.5255    3.3293   51.1303 C.ar    1  UNL        -0.0272
      4 C          -4.1705    4.0166   52.1894 C.ar    1  UNL         0.0699
      5 N          -3.7318    5.2183   52.6316 N.ar    1  UNL        -0.2586
      6 C          -2.6542    5.7809   52.0537 C.ar    1  UNL         0.0272
      7 C          -5.4081    3.4353   52.8943 C.3     1  UNL         0.1101
      8 C          -5.4450    3.7357   54.4054 C.ar    1  UNL         0.0699
      9 C          -6.2460    4.7812   54.9303 C.ar    1  UNL        -0.0272
     10 C          -6.2252    5.0091   56.3192 C.ar    1  UNL        -0.0559
     11 C          -5.4176    4.2014   57.1326 C.ar    1  UNL        -0.0435
     12 C          -4.6541    3.1913   56.5296 C.ar    1  UNL         0.0272
     13 N          -4.6663    2.9666   55.2025 N.ar    1  UNL        -0.2586
     14 C          -7.1223    5.6581   54.0425 C.3     1  UNL        -0.0379
     15 N          -6.6768    3.7407   52.1767 N.am    1  UNL        -0.2902
     16 C          -7.8355    2.9773   52.3251 C.2     1  UNL         0.2180
     17 O          -8.9086    3.4053   51.9328 O.2     1  UNL        -0.2772
     18 C          -7.7640    1.7656   53.2865 C.3     1  UNL         0.0385
     19 C          -7.4348    0.4598   52.5237 C.3     1  UNL        -0.0289
     20 C          -8.6433   -0.0698   51.7224 C.3     1  UNL        -0.0010
     21 N          -9.8284   -0.2525   52.5880 N.4     1  UNL        -0.3010
     22 C         -10.2301    0.9682   53.3216 C.3     1  UNL        -0.0010
     23 C          -9.0572    1.5819   54.1235 C.3     1  UNL        -0.0289
     24 C         -10.9514   -0.9565   51.9301 C.3     1  UNL         0.0222
     25 C         -11.6322   -2.0223   52.8178 C.3     1  UNL         0.0661
     26 O         -12.3693   -1.3365   53.8420 O.3     1  UNL        -0.3432
     27 C         -13.0828   -2.0738   54.7547 C.ar    1  UNL         0.0937
     28 C         -12.4138   -3.0418   55.5227 C.ar    1  UNL        -0.0288
     29 C         -13.1240   -3.8094   56.4606 C.ar    1  UNL        -0.0408
     30 C         -14.5046   -3.6100   56.6272 C.ar    1  UNL         0.0422
     31 C         -15.1774   -2.6466   55.8571 C.ar    1  UNL        -0.0221
     32 C         -14.4688   -1.8775   54.9186 C.ar    1  UNL         0.0723
     33 CL        -15.3328   -0.6850   53.9661 Cl      1  UNL        -0.0814
     34 CL        -15.3899   -4.5668   57.7958 Cl      1  UNL        -0.0843
     35 C          -6.6157    4.8075   51.1573 C.3     1  UNL         0.0038
     36 C          -4.0120    1.9769   50.6209 C.3     1  UNL        -0.0379
     37 H          -1.0902    5.6546   50.5579 H       1  UNL         0.0639
     38 H          -1.8757    3.4341   49.7179 H       1  UNL         0.0627
     39 H          -2.3435    6.7485   52.4461 H       1  UNL         0.0840
     40 H          -5.2903    2.3508   52.8250 H       1  UNL         0.0643
     41 H          -6.8255    5.7985   56.7625 H       1  UNL         0.0627
     42 H          -5.3835    4.3542   58.2072 H       1  UNL         0.0639
     43 H          -4.0135    2.5420   57.1250 H       1  UNL         0.0840
     44 H          -6.5147    6.2403   53.3387 H       1  UNL         0.0280
     45 H          -7.7102    6.3710   54.6340 H       1  UNL         0.0280
     46 H          -7.8319    5.0544   53.4635 H       1  UNL         0.0280
     47 H          -6.9606    1.9432   54.0087 H       1  UNL         0.0402
     48 H          -7.1289   -0.3080   53.2461 H       1  UNL         0.0288
     49 H          -6.5838    0.6140   51.8497 H       1  UNL         0.0288
     50 H          -8.3676   -1.0269   51.2612 H       1  UNL         0.0431
     51 H          -8.8714    0.6369   50.9143 H       1  UNL         0.0431
     52 H         -11.0439    0.7309   54.0187 H       1  UNL         0.0431
     53 H         -10.6125    1.7175   52.6187 H       1  UNL         0.0431
     54 H          -8.8341    0.9157   54.9669 H       1  UNL         0.0288
     55 H          -9.3633    2.5423   54.5578 H       1  UNL         0.0288
     56 H         -10.5884   -1.4436   51.0160 H       1  UNL         0.0455
     57 H         -11.7085   -0.2225   51.6252 H       1  UNL         0.0455
     58 H         -10.8754   -2.6728   53.2730 H       1  UNL         0.0586
     59 H         -12.3108   -2.6401   52.2169 H       1  UNL         0.0586
     60 H         -11.3467   -3.1951   55.3905 H       1  UNL         0.0652
     61 H         -12.6053   -4.5564   57.0549 H       1  UNL         0.0639
     62 H         -16.2455   -2.4970   55.9865 H       1  UNL         0.0655
     63 H          -5.8784    5.5693   51.4395 H       1  UNL         0.0433
     64 H          -7.5952    5.2934   51.0640 H       1  UNL         0.0433
     65 H          -6.3360    4.3762   50.1880 H       1  UNL         0.0433
     66 H          -3.4106    1.6248   49.7736 H       1  UNL         0.0280
     67 H          -5.0526    2.0316   50.2787 H       1  UNL         0.0280
     68 H          -3.9488    1.2129   51.4052 H       1  UNL         0.0280
@<TRIPOS>BOND
     1     1     2   ar
     2     1     6   ar
     3     1    37    1
     4     2     3   ar
     5     2    38    1
     6     3     4   ar
     7     3    36    1
     8     4     5   ar
     9     4     7    1
    10     5     6   ar
    11     6    39    1
    12     7     8    1
    13     7    15    1
    14     7    40    1
    15     8     9   ar
    16     8    13   ar
    17     9    10   ar
    18     9    14    1
    19    10    11   ar
    20    10    41    1
    21    11    12   ar
    22    11    42    1
    23    12    13   ar
    24    12    43    1
    25    14    44    1
    26    14    45    1
    27    14    46    1
    28    15    16   am
    29    15    35    1
    30    16    17    2
    31    16    18    1
    32    18    19    1
    33    18    23    1
    34    18    47    1
    35    19    20    1
    36    19    48    1
    37    19    49    1
    38    20    21    1
    39    20    50    1
    40    20    51    1
    41    21    22    1
    42    21    24    1
    43    22    23    1
    44    22    52    1
    45    22    53    1
    46    23    54    1
    47    23    55    1
    48    24    25    1
    49    24    56    1
    50    24    57    1
    51    25    26    1
    52    25    58    1
    53    25    59    1
    54    26    27    1
    55    27    28   ar
    56    27    32   ar
    57    28    29   ar
    58    28    60    1
    59    29    30   ar
    60    29    61    1
    61    30    31   ar
    62    30    34    1
    63    31    32   ar
    64    31    62    1
    65    32    33    1
    66    35    63    1
    67    35    64    1
    68    35    65    1
    69    36    66    1
    70    36    67    1
    71    36    68    1
@<TRIPOS>SUBSTRUCTURE
     1 UNL         1 TEMP              0 ****  ****    0 ROOT


##########                                Name:    ZINC000770850676
##########                DOCK_Rotatable_Bonds:                  13
##########                         Heavy_Atoms:                  30
##########                    Molecular_Weight:             412.486
##########                DOCK_Rotatable_Bonds:                  13
##########                       Formal_Charge:          -0.0299994
##########                     HBond_Acceptors:                   7
##########                        HBond_Donors:                   3
##########                         Heavy_Atoms:                  30
##########                          Grid_Score:          -35.222439
##########                     Grid_vdw_energy:          -34.726147
##########                      Grid_es_energy:           -0.496293
##########           Internal_energy_repulsive:           16.622854

@<TRIPOS>MOLECULE
ZINC000770850676
 58 60 1 0 0
SMALL
USER_CHARGES


@<TRIPOS>ATOM
      1 O1        -11.1986   -3.3007   55.7285 O.2     1  ZINC000770850676   -0.5300
      2 C2        -11.9984   -2.6456   56.3625 C.2     1  ZINC000770850676    0.5100
      3 N3        -12.2126   -1.3532   56.0458 N.am    1  ZINC000770850676   -0.7000
      4 C4        -11.4750   -0.7381   54.9396 C.3     1  ZINC000770850676    0.1600
      5 H5        -10.5663   -1.3085   54.7472 H       1  ZINC000770850676    0.1000
      6 C6        -11.1057    0.6997   55.3098 C.3     1  ZINC000770850676    0.0600
      7 O7         -9.6878    0.8612   55.2372 O.3     1  ZINC000770850676   -0.5700
      8 C8        -12.3492   -0.7329   53.6840 C.3     1  ZINC000770850676   -0.1500
      9 C9        -11.4974   -1.1022   52.4679 C.3     1  ZINC000770850676    0.1500
     10 H10       -10.9848   -2.0455   52.6563 H       1  ZINC000770850676    0.1100
     11 O11       -12.3384   -1.2379   51.3206 O.3     1  ZINC000770850676   -0.5400
     12 C12       -10.4800   -0.0185   52.2194 C.ar    1  ZINC000770850676   -0.1200
     13 C13        -9.1369   -0.3361   52.1412 C.ar    1  ZINC000770850676   -0.1100
     14 C14        -8.2037    0.6578   51.9134 C.ar    1  ZINC000770850676   -0.1200
     15 C15        -8.6136    1.9694   51.7631 C.ar    1  ZINC000770850676   -0.1200
     16 C16        -9.9568    2.2869   51.8403 C.ar    1  ZINC000770850676   -0.1200
     17 C17       -10.8904    1.2923   52.0640 C.ar    1  ZINC000770850676   -0.1100
     18 C18       -12.7572   -3.2782   57.5005 C.3     1  ZINC000770850676    0.1400
     19 H19       -12.5819   -4.3540   57.5100 H       1  ZINC000770850676    0.1000
     20 C20       -14.2663   -2.9938   57.3473 C.3     1  ZINC000770850676   -0.1200
     21 C21       -14.7242   -2.7506   58.8097 C.3     1  ZINC000770850676   -0.1300
     22 C22       -13.4891   -2.0311   59.4068 C.3     1  ZINC000770850676    0.1000
     23 N23       -12.3262   -2.6900   58.7771 N.am    1  ZINC000770850676   -0.5900
     24 C24       -11.0801   -2.7404   59.2880 C.2     1  ZINC000770850676    0.6700
     25 O25       -10.1967   -3.3115   58.6798 O.2     1  ZINC000770850676   -0.5600
     26 O26       -10.8141   -2.1580   60.4724 O.3     1  ZINC000770850676   -0.3600
     27 C27        -9.6017   -1.3637   60.5588 C.3     1  ZINC000770850676    0.1300
     28 C28        -9.6044   -0.5814   61.8468 C.ar    1  ZINC000770850676   -0.1000
     29 C29        -8.4917   -0.5966   62.6670 C.ar    1  ZINC000770850676   -0.0900
     30 C30        -8.4942    0.1210   63.8485 C.ar    1  ZINC000770850676   -0.1200
     31 C31        -9.6092    0.8541   64.2096 C.ar    1  ZINC000770850676   -0.1100
     32 C32       -10.7215    0.8699   63.3890 C.ar    1  ZINC000770850676   -0.1200
     33 C33       -10.7174    0.1559   62.2054 C.ar    1  ZINC000770850676   -0.0900
     34 H34       -12.8552   -0.8302   56.5503 H       1  ZINC000770850676    0.4000
     35 H35       -11.5860    1.3886   54.6149 H       1  ZINC000770850676    0.0500
     36 H36       -11.4441    0.9122   56.3241 H       1  ZINC000770850676    0.0500
     37 H37        -9.1988    0.3427   55.8908 H       1  ZINC000770850676    0.3800
     38 H38       -13.1535   -1.4597   53.7983 H       1  ZINC000770850676    0.0800
     39 H39       -12.7747    0.2604   53.5415 H       1  ZINC000770850676    0.0900
     40 H40       -12.9197   -0.4806   51.1672 H       1  ZINC000770850676    0.3700
     41 H41        -8.8167   -1.3609   52.2586 H       1  ZINC000770850676    0.1200
     42 H42        -7.1543    0.4098   51.8530 H       1  ZINC000770850676    0.1200
     43 H43        -7.8845    2.7462   51.5858 H       1  ZINC000770850676    0.1200
     44 H44       -10.2770    3.3117   51.7233 H       1  ZINC000770850676    0.1200
     45 H45       -11.9398    1.5404   52.1243 H       1  ZINC000770850676    0.1200
     46 H46       -14.4313   -2.1047   56.7386 H       1  ZINC000770850676    0.0800
     47 H47       -14.7798   -3.8554   56.9206 H       1  ZINC000770850676    0.1000
     48 H48       -15.6041   -2.1080   58.8419 H       1  ZINC000770850676    0.0900
     49 H49       -14.9125   -3.6940   59.3222 H       1  ZINC000770850676    0.0800
     50 H50       -13.5087   -0.9710   59.1543 H       1  ZINC000770850676    0.0700
     51 H51       -13.4588   -2.1638   60.4883 H       1  ZINC000770850676    0.0900
     52 H52        -8.7334   -2.0223   60.5355 H       1  ZINC000770850676    0.0800
     53 H53        -9.5578   -0.6747   59.7153 H       1  ZINC000770850676    0.0800
     54 H54        -7.6206   -1.1692   62.3848 H       1  ZINC000770850676    0.1200
     55 H55        -7.6251    0.1087   64.4896 H       1  ZINC000770850676    0.1300
     56 H56        -9.6113    1.4141   65.1331 H       1  ZINC000770850676    0.1300
     57 H57       -11.5927    1.4423   63.6714 H       1  ZINC000770850676    0.1300
     58 H58       -11.5864    0.1682   61.5643 H       1  ZINC000770850676    0.1200
@<TRIPOS>BOND
     1     1     2    2
     2     2     3   am
     3     2    18    1
     4     3     4    1
     5     3    34    1
     6     4     5    1
     7     4     6    1
     8     4     8    1
     9     6     7    1
    10     6    35    1
    11     6    36    1
    12     7    37    1
    13     8     9    1
    14     8    38    1
    15     8    39    1
    16     9    10    1
    17     9    11    1
    18     9    12    1
    19    11    40    1
    20    12    17   ar
    21    12    13   ar
    22    13    14   ar
    23    13    41    1
    24    14    15   ar
    25    14    42    1
    26    15    16   ar
    27    15    43    1
    28    16    17   ar
    29    16    44    1
    30    17    45    1
    31    18    19    1
    32    18    23    1
    33    18    20    1
    34    20    21    1
    35    20    46    1
    36    20    47    1
    37    21    22    1
    38    21    48    1
    39    21    49    1
    40    22    23    1
    41    22    50    1
    42    22    51    1
    43    23    24   am
    44    24    25    2
    45    24    26    1
    46    26    27    1
    47    27    28    1
    48    27    52    1
    49    27    53    1
    50    28    33   ar
    51    28    29   ar
    52    29    30   ar
    53    29    54    1
    54    30    31   ar
    55    30    55    1
    56    31    32   ar
    57    31    56    1
    58    32    33   ar
    59    32    57    1
    60    33    58    1
@<TRIPOS>SUBSTRUCTURE
     1 ZINC000770850676        1 TEMP              0 ****  ****    0 ROOT


##########                                Name:    ZINC000435005159
##########                DOCK_Rotatable_Bonds:                  12
##########                         Heavy_Atoms:                  30
##########                    Molecular_Weight:             401.508
##########                DOCK_Rotatable_Bonds:                  12
##########                       Formal_Charge:          -0.0399985
##########                     HBond_Acceptors:                   5
##########                        HBond_Donors:                   2
##########                         Heavy_Atoms:                  30
##########                          Grid_Score:          -35.008141
##########                     Grid_vdw_energy:          -31.856398
##########                      Grid_es_energy:           -3.151743
##########           Internal_energy_repulsive:           11.086760

@<TRIPOS>MOLECULE
ZINC000435005159
 57 59 1 0 0
SMALL
USER_CHARGES


@<TRIPOS>ATOM
      1 O1         -7.9093    0.1488   58.3706 O.2     1  ZINC000435005159   -0.5300
      2 C2         -8.4271    1.1833   58.7347 C.2     1  ZINC000435005159    0.5200
      3 C3         -8.2793    2.4327   57.9051 C.3     1  ZINC000435005159   -0.1400
      4 C4         -7.2388    2.1965   56.8084 C.3     1  ZINC000435005159   -0.1200
      5 C5         -7.0841    3.4670   55.9701 C.3     1  ZINC000435005159    0.1200
      6 N6         -6.0314    3.2674   54.9709 N.am    1  ZINC000435005159   -0.7200
      7 C7         -6.0610    3.9578   53.8138 C.2     1  ZINC000435005159    0.5600
      8 O8         -6.9619    4.7451   53.5987 O.2     1  ZINC000435005159   -0.5300
      9 C9         -4.9978    3.7578   52.8062 C.ar    1  ZINC000435005159   -0.1900
     10 C10        -3.9132    2.9143   53.0738 C.ar    1  ZINC000435005159   -0.0200
     11 C11        -2.9449    2.7608   52.0969 C.ar    1  ZINC000435005159   -0.1800
     12 C12        -3.0784    3.4392   50.8990 C.ar    1  ZINC000435005159    0.1200
     13 N13        -4.1118    4.2285   50.6746 N.ar    1  ZINC000435005159   -0.4900
     14 C14        -5.0614    4.4023   51.5700 C.ar    1  ZINC000435005159    0.1400
     15 N15        -9.1395    1.2144   59.8785 N.am    1  ZINC000435005159   -0.7300
     16 C16        -9.2832   -0.0002   60.6849 C.3     1  ZINC000435005159    0.1900
     17 H17        -8.2994   -0.4306   60.8724 H       1  ZINC000435005159    0.1000
     18 C18        -9.9495    0.3484   62.0175 C.3     1  ZINC000435005159   -0.1200
     19 C19        -8.9831    1.1720   62.8709 C.3     1  ZINC000435005159   -0.0800
     20 C20        -9.5315    1.3005   64.2687 C.ar    1  ZINC000435005159   -0.0800
     21 C21       -10.8266    1.7424   64.4651 C.ar    1  ZINC000435005159   -0.1200
     22 C22       -11.3298    1.8601   65.7472 C.ar    1  ZINC000435005159   -0.1200
     23 C23       -10.5380    1.5358   66.8329 C.ar    1  ZINC000435005159   -0.1200
     24 C24        -9.2433    1.0931   66.6365 C.ar    1  ZINC000435005159   -0.1200
     25 C25        -8.7416    0.9711   65.3541 C.ar    1  ZINC000435005159   -0.1200
     26 C26       -10.1350   -0.9979   59.9432 C.ar    1  ZINC000435005159   -0.1000
     27 C27        -9.6531   -2.2699   59.6969 C.ar    1  ZINC000435005159   -0.1100
     28 C28       -10.4343   -3.1852   59.0166 C.ar    1  ZINC000435005159   -0.1200
     29 C29       -11.6977   -2.8286   58.5830 C.ar    1  ZINC000435005159   -0.1200
     30 C30       -12.1798   -1.5568   58.8303 C.ar    1  ZINC000435005159   -0.1200
     31 C31       -11.4002   -0.6430   59.5143 C.ar    1  ZINC000435005159   -0.1000
     32 H32        -9.2376    2.6816   57.4491 H       1  ZINC000435005159    0.1000
     33 H33        -7.9553    3.2557   58.5420 H       1  ZINC000435005159    0.1000
     34 H34        -6.2817    1.9429   57.2642 H       1  ZINC000435005159    0.0800
     35 H35        -7.5650    1.3765   56.1687 H       1  ZINC000435005159    0.0800
     36 H36        -8.0255    3.6873   55.4670 H       1  ZINC000435005159    0.0700
     37 H37        -6.8153    4.3002   56.6194 H       1  ZINC000435005159    0.0700
     38 H38        -5.3131    2.6384   55.1421 H       1  ZINC000435005159    0.4000
     39 H39        -3.8338    2.3968   54.0185 H       1  ZINC000435005159    0.1500
     40 H40        -2.0939    2.1185   52.2683 H       1  ZINC000435005159    0.1500
     41 H41        -2.3243    3.3212   50.1349 H       1  ZINC000435005159    0.1600
     42 H42        -5.8920    5.0564   51.3493 H       1  ZINC000435005159    0.1600
     43 H43        -9.5569    2.0409   60.1676 H       1  ZINC000435005159    0.4000
     44 H44       -10.8537    0.9278   61.8309 H       1  ZINC000435005159    0.0700
     45 H45       -10.2086   -0.5695   62.5452 H       1  ZINC000435005159    0.0800
     46 H46        -8.0140    0.6742   62.9053 H       1  ZINC000435005159    0.0700
     47 H47        -8.8668    2.1637   62.4337 H       1  ZINC000435005159    0.0700
     48 H48       -11.4452    1.9958   63.6168 H       1  ZINC000435005159    0.1200
     49 H49       -12.3413    2.2061   65.9007 H       1  ZINC000435005159    0.1200
     50 H50       -10.9309    1.6285   67.8346 H       1  ZINC000435005159    0.1200
     51 H51        -8.6246    0.8399   67.4847 H       1  ZINC000435005159    0.1200
     52 H52        -7.7300    0.6252   65.2007 H       1  ZINC000435005159    0.1200
     53 H53        -8.6661   -2.5485   60.0355 H       1  ZINC000435005159    0.1200
     54 H54       -10.0576   -4.1787   58.8233 H       1  ZINC000435005159    0.1200
     55 H55       -12.3077   -3.5434   58.0510 H       1  ZINC000435005159    0.1200
     56 H56       -13.1666   -1.2781   58.4913 H       1  ZINC000435005159    0.1200
     57 H57       -11.7770    0.3506   59.7076 H       1  ZINC000435005159    0.1200
@<TRIPOS>BOND
     1     1     2    2
     2     2     3    1
     3     2    15   am
     4     3     4    1
     5     3    32    1
     6     3    33    1
     7     4     5    1
     8     4    34    1
     9     4    35    1
    10     5     6    1
    11     5    36    1
    12     5    37    1
    13     6     7   am
    14     6    38    1
    15     7     8    2
    16     7     9    1
    17     9    14   ar
    18     9    10   ar
    19    10    11   ar
    20    10    39    1
    21    11    12   ar
    22    11    40    1
    23    12    13   ar
    24    12    41    1
    25    13    14   ar
    26    14    42    1
    27    15    16    1
    28    15    43    1
    29    16    17    1
    30    16    18    1
    31    16    26    1
    32    18    19    1
    33    18    44    1
    34    18    45    1
    35    19    20    1
    36    19    46    1
    37    19    47    1
    38    20    25   ar
    39    20    21   ar
    40    21    22   ar
    41    21    48    1
    42    22    23   ar
    43    22    49    1
    44    23    24   ar
    45    23    50    1
    46    24    25   ar
    47    24    51    1
    48    25    52    1
    49    26    31   ar
    50    26    27   ar
    51    27    28   ar
    52    27    53    1
    53    28    29   ar
    54    28    54    1
    55    29    30   ar
    56    29    55    1
    57    30    31   ar
    58    30    56    1
    59    31    57    1
@<TRIPOS>SUBSTRUCTURE
     1 ZINC000435005159        1 TEMP              0 ****  ****    0 ROOT


##########                                Name:    ZINC000058174787
##########                DOCK_Rotatable_Bonds:                   9
##########                         Heavy_Atoms:                  27
##########                    Molecular_Weight:             413.882
##########                DOCK_Rotatable_Bonds:                   9
##########                       Formal_Charge:           0.0200002
##########                     HBond_Acceptors:                  10
##########                        HBond_Donors:                   1
##########                         Heavy_Atoms:                  27
##########                          Grid_Score:          -34.995670
##########                     Grid_vdw_energy:          -33.547791
##########                      Grid_es_energy:           -1.447879
##########           Internal_energy_repulsive:            5.768536

@<TRIPOS>MOLECULE
ZINC000058174787
 47 48 1 0 0
SMALL
USER_CHARGES


@<TRIPOS>ATOM
      1 C1         -6.8319    0.5767   51.5027 C.3     1  ZINC000058174787   -0.0700
      2 C2         -8.1682    0.4083   52.1788 C.2     1  ZINC000058174787    0.2100
      3 N3         -9.0654   -0.4901   51.8772 N.2     1  ZINC000058174787   -0.4200
      4 C4        -10.1267   -0.3436   52.6843 C.2     1  ZINC000058174787   -0.5600
      5 S5        -11.5902   -1.3246   52.6586 S.o2    1  ZINC000058174787    2.7400
      6 O6        -12.4206   -0.7798   51.6423 O.2     1  ZINC000058174787   -0.9500
      7 O7        -11.1648   -2.6803   52.6711 O.2     1  ZINC000058174787   -0.9600
      8 N8        -12.3774   -1.0682   54.0929 N.am    1  ZINC000058174787   -1.1100
      9 C9        -11.7153   -1.3901   55.3595 C.3     1  ZINC000058174787    0.1300
     10 C10       -12.7632   -1.5011   56.4688 C.3     1  ZINC000058174787   -0.1200
     11 C11       -12.1480   -2.1589   57.6770 C.2     1  ZINC000058174787    0.4700
     12 O12       -12.7825   -2.9658   58.3143 O.2     1  ZINC000058174787   -0.5000
     13 O13       -10.8950   -1.8485   58.0451 O.3     1  ZINC000058174787   -0.3300
     14 C14       -10.7406   -0.8079   59.0458 C.3     1  ZINC000058174787    0.0400
     15 H15       -11.6491   -0.2072   59.0885 H       1  ZINC000058174787    0.1200
     16 C16        -9.5554    0.0853   58.6742 C.3     1  ZINC000058174787   -0.1700
     17 C17       -10.4919   -1.4384   60.3919 C.2     1  ZINC000058174787    0.4000
     18 O18       -10.5855   -2.6401   60.5251 O.2     1  ZINC000058174787   -0.4200
     19 C19       -10.1353   -0.5963   61.5439 C.ar    1  ZINC000058174787   -0.1600
     20 C20       -11.0516    0.3352   62.0439 C.ar    1  ZINC000058174787   -0.0600
     21 C21       -10.7108    1.1205   63.1239 C.ar    1  ZINC000058174787   -0.1200
     22 C22        -9.4641    0.9892   63.7144 C.ar    1  ZINC000058174787    0.0000
     23 Cl23       -9.0437    1.9822   65.0748 Cl      1  ZINC000058174787   -0.0500
     24 C24        -8.5515    0.0687   63.2245 C.ar    1  ZINC000058174787   -0.1200
     25 C25        -8.8804   -0.7271   62.1484 C.ar    1  ZINC000058174787   -0.0400
     26 C26        -9.8777    0.6845   53.5175 C.2     1  ZINC000058174787    0.0700
     27 N27        -8.6332    1.1585   53.2009 N.pl3   1  ZINC000058174787   -0.4500
     28 C28        -7.9390    2.2764   53.8448 C.3     1  ZINC000058174787    0.0600
     29 H29        -6.0877   -0.0362   52.0113 H       1  ZINC000058174787    0.0900
     30 H30        -6.9097    0.2642   50.4613 H       1  ZINC000058174787    0.1000
     31 H31        -6.5319    1.6236   51.5465 H       1  ZINC000058174787    0.0800
     32 H32       -13.2767   -0.7049   54.0943 H       1  ZINC000058174787    0.4200
     33 H33       -11.1869   -2.3385   55.2626 H       1  ZINC000058174787    0.0900
     34 H34       -11.0047   -0.6019   55.6087 H       1  ZINC000058174787    0.0900
     35 H35       -13.1153   -0.5051   56.7371 H       1  ZINC000058174787    0.1200
     36 H36       -13.6028   -2.1006   56.1168 H       1  ZINC000058174787    0.1200
     37 H37        -8.6470   -0.5155   58.6316 H       1  ZINC000058174787    0.0800
     38 H38        -9.7354    0.5414   57.7007 H       1  ZINC000058174787    0.0800
     39 H39        -9.4395    0.8665   59.4255 H       1  ZINC000058174787    0.0800
     40 H40       -12.0234    0.4389   61.5844 H       1  ZINC000058174787    0.1400
     41 H41       -11.4170    1.8403   63.5108 H       1  ZINC000058174787    0.1400
     42 H42        -7.5817   -0.0283   63.6896 H       1  ZINC000058174787    0.1400
     43 H43        -8.1684   -1.4443   61.7679 H       1  ZINC000058174787    0.1500
     44 H44       -10.5324    1.0602   54.2900 H       1  ZINC000058174787    0.1900
     45 H45        -7.3474    1.9035   54.6810 H       1  ZINC000058174787    0.0900
     46 H46        -7.2820    2.7606   53.1224 H       1  ZINC000058174787    0.1000
     47 H47        -8.6709    2.9966   54.2102 H       1  ZINC000058174787    0.0900
@<TRIPOS>BOND
     1     1     2    1
     2     1    29    1
     3     1    30    1
     4     1    31    1
     5     2    27    1
     6     2     3    2
     7     3     4    1
     8     4     5    1
     9     4    26    2
    10     5     6    2
    11     5     7    2
    12     5     8   am
    13     8     9    1
    14     8    32    1
    15     9    10    1
    16     9    33    1
    17     9    34    1
    18    10    11    1
    19    10    35    1
    20    10    36    1
    21    11    12    2
    22    11    13    1
    23    13    14    1
    24    14    15    1
    25    14    16    1
    26    14    17    1
    27    16    37    1
    28    16    38    1
    29    16    39    1
    30    17    18    2
    31    17    19    1
    32    19    25   ar
    33    19    20   ar
    34    20    21   ar
    35    20    40    1
    36    21    22   ar
    37    21    41    1
    38    22    23    1
    39    22    24   ar
    40    24    25   ar
    41    24    42    1
    42    25    43    1
    43    26    27    1
    44    26    44    1
    45    27    28    1
    46    28    45    1
    47    28    46    1
    48    28    47    1
@<TRIPOS>SUBSTRUCTURE
     1 ZINC000058174787        1 TEMP              0 ****  ****    0 ROOT


##########                                Name:    ZINC000772422035
##########                DOCK_Rotatable_Bonds:                  10
##########                         Heavy_Atoms:                  25
##########                    Molecular_Weight:             348.399
##########                DOCK_Rotatable_Bonds:                  10
##########                       Formal_Charge:          0.00999987
##########                     HBond_Acceptors:                   7
##########                        HBond_Donors:                   0
##########                         Heavy_Atoms:                  25
##########                          Grid_Score:          -34.975174
##########                     Grid_vdw_energy:          -35.311771
##########                      Grid_es_energy:            0.336597
##########           Internal_energy_repulsive:           17.359064

@<TRIPOS>MOLECULE
ZINC000772422035
 49 50 1 0 0
SMALL
USER_CHARGES


@<TRIPOS>ATOM
      1 C1         -3.9021    3.1914   50.2031 C.3     1  ZINC000772422035    0.0300
      2 O2         -5.2233    3.5969   50.5663 O.3     1  ZINC000772422035   -0.3900
      3 C3         -6.2112    2.5785   50.3967 C.3     1  ZINC000772422035    0.0600
      4 C4         -5.9004    1.4061   51.3292 C.3     1  ZINC000772422035    0.0700
      5 O5         -6.8915    0.3901   51.1636 O.3     1  ZINC000772422035   -0.3000
      6 C6         -8.0029    0.4820   51.9363 C.ar    1  ZINC000772422035    0.3300
      7 C7         -8.9130   -0.5668   51.9595 C.ar    1  ZINC000772422035   -0.1700
      8 C8        -10.0429   -0.4606   52.7520 C.ar    1  ZINC000772422035   -0.0200
      9 C9        -11.0545   -1.5764   52.8054 C.3     1  ZINC000772422035    0.1100
     10 O10       -11.3394   -1.9054   54.1906 O.3     1  ZINC000772422035   -0.3500
     11 C11       -12.6209   -1.8318   54.5833 C.2     1  ZINC000772422035    0.4700
     12 O12       -13.2764   -0.8502   54.3251 O.2     1  ZINC000772422035   -0.5000
     13 C13       -13.2420   -2.9735   55.3460 C.3     1  ZINC000772422035   -0.1100
     14 C14       -12.9647   -2.7990   56.8406 C.3     1  ZINC000772422035    0.0000
     15 H15       -12.7846   -1.7458   57.0560 H       1  ZINC000772422035    0.1000
     16 C16       -11.7319   -3.6174   57.2296 C.3     1  ZINC000772422035   -0.1500
     17 C17       -14.1551   -3.2771   57.6314 C.2     1  ZINC000772422035   -0.2000
     18 C18       -14.7517   -2.6740   58.6874 C.2     1  ZINC000772422035   -0.0200
     19 C19       -14.3539   -1.3666   59.3227 C.3     1  ZINC000772422035   -0.0800
     20 O20       -15.7656   -3.4696   59.0558 O.3     1  ZINC000772422035    0.1000
     21 N21       -15.8365   -4.4526   58.3551 N.2     1  ZINC000772422035   -0.3600
     22 C22       -14.9115   -4.4559   57.4391 C.2     1  ZINC000772422035    0.0300
     23 C23       -14.6857   -5.5120   56.3880 C.3     1  ZINC000772422035   -0.0800
     24 C24       -10.2228    0.6967   53.4967 C.ar    1  ZINC000772422035   -0.1900
     25 C25        -9.2764    1.6999   53.4251 C.ar    1  ZINC000772422035    0.1400
     26 N26        -8.2065    1.5673   52.6646 N.ar    1  ZINC000772422035   -0.5300
     27 H27        -3.2114    4.0199   50.3605 H       1  ZINC000772422035    0.0900
     28 H28        -3.5998    2.3443   50.8188 H       1  ZINC000772422035    0.0400
     29 H29        -3.8872    2.9007   49.1526 H       1  ZINC000772422035    0.0400
     30 H30        -7.1947    2.9828   50.6365 H       1  ZINC000772422035    0.0600
     31 H31        -6.2028    2.2328   49.3629 H       1  ZINC000772422035    0.0700
     32 H32        -4.9188    0.9991   51.0863 H       1  ZINC000772422035    0.0800
     33 H33        -5.9045    1.7528   52.3625 H       1  ZINC000772422035    0.0800
     34 H34        -8.7417   -1.4532   51.3668 H       1  ZINC000772422035    0.1400
     35 H35       -11.9725   -1.2584   52.3113 H       1  ZINC000772422035    0.0900
     36 H36       -10.6542   -2.4543   52.2984 H       1  ZINC000772422035    0.0900
     37 H37       -14.3184   -2.9820   55.1747 H       1  ZINC000772422035    0.1100
     38 H38       -12.8122   -3.9152   55.0044 H       1  ZINC000772422035    0.1100
     39 H39       -11.8607   -4.6479   56.8987 H       1  ZINC000772422035    0.0600
     40 H40       -10.8482   -3.1911   56.7548 H       1  ZINC000772422035    0.0800
     41 H41       -11.6086   -3.5960   58.3124 H       1  ZINC000772422035    0.0600
     42 H42       -14.8128   -0.5427   58.7760 H       1  ZINC000772422035    0.0900
     43 H43       -14.6922   -1.3484   60.3587 H       1  ZINC000772422035    0.0900
     44 H44       -13.2693   -1.2632   59.2927 H       1  ZINC000772422035    0.0900
     45 H45       -15.1983   -5.2261   55.4697 H       1  ZINC000772422035    0.0800
     46 H46       -13.6176   -5.6082   56.1932 H       1  ZINC000772422035    0.0800
     47 H47       -15.0779   -6.4659   56.7412 H       1  ZINC000772422035    0.0800
     48 H48       -11.0936    0.8117   54.1250 H       1  ZINC000772422035    0.1400
     49 H49        -9.4116    2.6024   54.0027 H       1  ZINC000772422035    0.1700
@<TRIPOS>BOND
     1     1     2    1
     2     1    27    1
     3     1    28    1
     4     1    29    1
     5     2     3    1
     6     3     4    1
     7     3    30    1
     8     3    31    1
     9     4     5    1
    10     4    32    1
    11     4    33    1
    12     5     6    1
    13     6    26   ar
    14     6     7   ar
    15     7     8   ar
    16     7    34    1
    17     8     9    1
    18     8    24   ar
    19     9    10    1
    20     9    35    1
    21     9    36    1
    22    10    11    1
    23    11    12    2
    24    11    13    1
    25    13    14    1
    26    13    37    1
    27    13    38    1
    28    14    15    1
    29    14    16    1
    30    14    17    1
    31    16    39    1
    32    16    40    1
    33    16    41    1
    34    17    22    1
    35    17    18    2
    36    18    19    1
    37    18    20    1
    38    19    42    1
    39    19    43    1
    40    19    44    1
    41    20    21    1
    42    21    22    2
    43    22    23    1
    44    23    45    1
    45    23    46    1
    46    23    47    1
    47    24    25   ar
    48    24    48    1
    49    25    26   ar
    50    25    49    1
@<TRIPOS>SUBSTRUCTURE
     1 ZINC000772422035        1 TEMP              0 ****  ****    0 ROOT


##########                                Name:    ZINC000046390957
##########                DOCK_Rotatable_Bonds:                   9
##########                         Heavy_Atoms:                  29
##########                    Molecular_Weight:             408.521
##########                DOCK_Rotatable_Bonds:                   9
##########                       Formal_Charge:           0.0100005
##########                     HBond_Acceptors:                   6
##########                        HBond_Donors:                   1
##########                         Heavy_Atoms:                  29
##########                          Grid_Score:          -34.875999
##########                     Grid_vdw_energy:          -32.223671
##########                      Grid_es_energy:           -2.652330
##########           Internal_energy_repulsive:           14.545099

@<TRIPOS>MOLECULE
ZINC000046390957
 53 55 1 0 0
SMALL
USER_CHARGES


@<TRIPOS>ATOM
      1 C1         -4.6045    2.0852   50.5470 C.3     1  ZINC000046390957   -0.1100
      2 C2         -4.3091    3.2550   51.4500 C.ar    1  ZINC000046390957   -0.0600
      3 C3         -3.3614    4.1901   51.0823 C.ar    1  ZINC000046390957   -0.1200
      4 C4         -3.0893    5.2634   51.9106 C.ar    1  ZINC000046390957   -0.1100
      5 C5         -3.7650    5.4046   53.1088 C.ar    1  ZINC000046390957   -0.1200
      6 C6         -4.7141    4.4733   53.4820 C.ar    1  ZINC000046390957   -0.0800
      7 C7         -5.4503    4.6282   54.7878 C.3     1  ZINC000046390957   -0.1100
      8 C8         -4.9934    3.3970   52.6500 C.ar    1  ZINC000046390957    0.1300
      9 N9         -5.9548    2.4520   53.0250 N.am    1  ZINC000046390957   -0.6800
     10 C10        -7.2284    2.5828   52.6041 C.2     1  ZINC000046390957    0.5200
     11 O11        -7.5413    3.5198   51.9003 O.2     1  ZINC000046390957   -0.4900
     12 C12        -8.2638    1.5650   53.0079 C.3     1  ZINC000046390957    0.0700
     13 H13        -9.2563    1.9344   52.7500 H       1  ZINC000046390957    0.1100
     14 C14        -8.0014    0.2504   52.2704 C.3     1  ZINC000046390957   -0.1700
     15 O15        -8.1883    1.3398   54.4403 O.3     1  ZINC000046390957   -0.3300
     16 C16        -8.6457    2.3191   55.2361 C.2     1  ZINC000046390957    0.4700
     17 O17        -9.3591    3.1825   54.7826 O.2     1  ZINC000046390957   -0.4800
     18 C18        -8.2697    2.3418   56.6953 C.3     1  ZINC000046390957   -0.0300
     19 C19        -9.0252    1.2616   57.4256 C.2     1  ZINC000046390957    0.0800
     20 C20       -10.2721    0.9061   57.1015 C.2     1  ZINC000046390957   -0.2500
     21 S21       -10.7715   -0.3800   58.1973 S.3     1  ZINC000046390957    0.1300
     22 C22        -9.2540   -0.3119   58.9824 C.2     1  ZINC000046390957    0.0600
     23 C23        -8.8442   -1.1798   60.1442 C.3     1  ZINC000046390957    0.0000
     24 C24        -9.1589   -0.4709   61.4363 C.ar    1  ZINC000046390957   -0.0900
     25 C25       -10.3234    0.2645   61.5553 C.ar    1  ZINC000046390957   -0.0900
     26 C26       -10.6121    0.9148   62.7405 C.ar    1  ZINC000046390957   -0.1200
     27 C27        -9.7366    0.8294   63.8068 C.ar    1  ZINC000046390957   -0.1200
     28 C28        -8.5725    0.0932   63.6881 C.ar    1  ZINC000046390957   -0.1200
     29 C29        -8.2859   -0.5606   62.5043 C.ar    1  ZINC000046390957   -0.1100
     30 N30        -8.5087    0.5864   58.4324 N.2     1  ZINC000046390957   -0.4500
     31 H31        -5.3179    2.3887   49.7808 H       1  ZINC000046390957    0.0800
     32 H32        -3.6821    1.7505   50.0724 H       1  ZINC000046390957    0.0700
     33 H33        -5.0272    1.2702   51.1346 H       1  ZINC000046390957    0.0600
     34 H34        -2.8320    4.0826   50.1471 H       1  ZINC000046390957    0.1300
     35 H35        -2.3474    5.9929   51.6212 H       1  ZINC000046390957    0.1300
     36 H36        -3.5500    6.2439   53.7537 H       1  ZINC000046390957    0.1300
     37 H37        -6.3544    5.2157   54.6278 H       1  ZINC000046390957    0.0700
     38 H38        -5.7196    3.6443   55.1720 H       1  ZINC000046390957    0.0600
     39 H39        -4.8094    5.1365   55.5082 H       1  ZINC000046390957    0.0700
     40 H40        -5.7046    1.7026   53.5878 H       1  ZINC000046390957    0.4100
     41 H41        -8.0581    0.4195   51.1950 H       1  ZINC000046390957    0.0800
     42 H42        -7.0089   -0.1191   52.5283 H       1  ZINC000046390957    0.0800
     43 H43        -8.7504   -0.4858   52.5624 H       1  ZINC000046390957    0.0800
     44 H44        -7.1984    2.1684   56.7972 H       1  ZINC000046390957    0.1200
     45 H45        -8.5225    3.3130   57.1205 H       1  ZINC000046390957    0.1300
     46 H46       -10.8683    1.3320   56.3080 H       1  ZINC000046390957    0.1800
     47 H47        -9.3905   -2.1221   60.1043 H       1  ZINC000046390957    0.1000
     48 H48        -7.7737   -1.3779   60.0899 H       1  ZINC000046390957    0.1000
     49 H49       -11.0075    0.3312   60.7222 H       1  ZINC000046390957    0.1200
     50 H50       -11.5215    1.4899   62.8332 H       1  ZINC000046390957    0.1200
     51 H51        -9.9619    1.3380   64.7325 H       1  ZINC000046390957    0.1200
     52 H52        -7.8883    0.0268   64.5210 H       1  ZINC000046390957    0.1200
     53 H53        -7.3765   -1.1356   62.4116 H       1  ZINC000046390957    0.1200
@<TRIPOS>BOND
     1     1     2    1
     2     1    31    1
     3     1    32    1
     4     1    33    1
     5     2     8   ar
     6     2     3   ar
     7     3     4   ar
     8     3    34    1
     9     4     5   ar
    10     4    35    1
    11     5     6   ar
    12     5    36    1
    13     6     7    1
    14     6     8   ar
    15     7    37    1
    16     7    38    1
    17     7    39    1
    18     8     9    1
    19     9    10   am
    20     9    40    1
    21    10    11    2
    22    10    12    1
    23    12    13    1
    24    12    14    1
    25    12    15    1
    26    14    41    1
    27    14    42    1
    28    14    43    1
    29    15    16    1
    30    16    17    2
    31    16    18    1
    32    18    19    1
    33    18    44    1
    34    18    45    1
    35    19    30    1
    36    19    20    2
    37    20    21    1
    38    20    46    1
    39    21    22    1
    40    22    23    1
    41    22    30    2
    42    23    24    1
    43    23    47    1
    44    23    48    1
    45    24    29   ar
    46    24    25   ar
    47    25    26   ar
    48    25    49    1
    49    26    27   ar
    50    26    50    1
    51    27    28   ar
    52    27    51    1
    53    28    29   ar
    54    28    52    1
    55    29    53    1
@<TRIPOS>SUBSTRUCTURE
     1 ZINC000046390957        1 TEMP              0 ****  ****    0 ROOT


##########                                Name:    ZINC000563265674
##########                DOCK_Rotatable_Bonds:                   7
##########                         Heavy_Atoms:                  25
##########                    Molecular_Weight:             386.859
##########                DOCK_Rotatable_Bonds:                   7
##########                       Formal_Charge:          0.00999963
##########                     HBond_Acceptors:                  10
##########                        HBond_Donors:                   2
##########                         Heavy_Atoms:                  25
##########                          Grid_Score:          -34.840893
##########                     Grid_vdw_energy:          -33.056110
##########                      Grid_es_energy:           -1.784781
##########           Internal_energy_repulsive:           16.652887

@<TRIPOS>MOLECULE
ZINC000563265674
 44 45 1 0 0
SMALL
USER_CHARGES


@<TRIPOS>ATOM
      1 C1         -9.9782    4.9964   48.2493 C.3     1  ZINC000563265674   -0.0600
      2 C2         -9.0693    4.6636   49.4043 C.2     1  ZINC000563265674    0.1700
      3 N3         -8.8528    5.4036   50.4504 N.2     1  ZINC000563265674   -0.3800
      4 O4         -8.0711    4.8548   51.1982 O.3     1  ZINC000563265674    0.0900
      5 C5         -7.7035    3.6771   50.6846 C.2     1  ZINC000563265674    0.1900
      6 C6         -6.7472    2.6885   51.3005 C.3     1  ZINC000563265674    0.2100
      7 C7         -6.8443    2.7674   52.8255 C.3     1  ZINC000563265674   -0.1400
      8 C8         -7.1074    1.2750   50.8390 C.3     1  ZINC000563265674   -0.1800
      9 N9         -5.3760    3.0065   50.8802 N.3     1  ZINC000563265674   -0.6600
     10 C10        -4.3977    2.1994   51.6214 C.3     1  ZINC000563265674    0.0400
     11 C11        -3.0164    2.4607   51.0784 C.2     1  ZINC000563265674    0.5200
     12 O12        -2.8650    2.7121   49.9015 O.2     1  ZINC000563265674   -0.4900
     13 N13        -1.9494    2.4151   51.9004 N.am    1  ZINC000563265674   -0.6700
     14 C14        -0.6663    2.6579   51.3960 C.ar    1  ZINC000563265674    0.1400
     15 C15         0.1849    1.5966   51.1200 C.ar    1  ZINC000563265674   -0.0300
     16 C16         1.4504    1.8393   50.6219 C.ar    1  ZINC000563265674   -0.6400
     17 S17         2.5310    0.4925   50.2711 S.o2    1  ZINC000563265674    2.5000
     18 C18         3.9516    0.7544   51.3685 C.3     1  ZINC000563265674   -0.6500
     19 O19         1.7983   -0.6578   50.6698 O.2     1  ZINC000563265674   -0.9300
     20 O20         2.9062    0.6885   48.9146 O.2     1  ZINC000563265674   -0.9300
     21 C21         1.8701    3.1375   50.3980 C.ar    1  ZINC000563265674   -0.0300
     22 C22         1.0253    4.1976   50.6719 C.ar    1  ZINC000563265674   -0.1100
     23 C23        -0.2439    3.9617   51.1650 C.ar    1  ZINC000563265674   -0.0200
     24 Cl24       -1.3043    5.2926   51.5082 Cl      1  ZINC000563265674   -0.0500
     25 N25        -8.3376    3.5439   49.5446 N.2     1  ZINC000563265674   -0.4700
     26 H26       -10.9816    4.6252   48.4579 H       1  ZINC000563265674    0.0900
     27 H27       -10.0117    6.0773   48.1129 H       1  ZINC000563265674    0.0900
     28 H28        -9.5987    4.5272   47.3415 H       1  ZINC000563265674    0.0900
     29 H29        -7.8617    2.5316   53.1374 H       1  ZINC000563265674    0.0800
     30 H30        -6.1527    2.0524   53.2710 H       1  ZINC000563265674    0.0800
     31 H31        -6.5877    3.7744   53.1542 H       1  ZINC000563265674    0.0700
     32 H32        -7.0382    1.2188   49.7527 H       1  ZINC000563265674    0.0700
     33 H33        -6.4157    0.5600   51.2846 H       1  ZINC000563265674    0.0800
     34 H34        -8.1248    1.0391   51.1509 H       1  ZINC000563265674    0.0800
     35 H35        -5.2655    2.8843   49.8846 H       1  ZINC000563265674    0.3600
     36 H36        -4.4299    2.4685   52.6771 H       1  ZINC000563265674    0.1200
     37 H37        -4.6385    1.1423   51.5084 H       1  ZINC000563265674    0.0800
     38 H38        -2.0705    2.2140   52.8415 H       1  ZINC000563265674    0.4200
     39 H39        -0.1418    0.5822   51.2950 H       1  ZINC000563265674    0.1700
     40 H40         3.6157    0.7472   52.4055 H       1  ZINC000563265674    0.1300
     41 H41         4.6796   -0.0425   51.2169 H       1  ZINC000563265674    0.1400
     42 H42         4.4129    1.7158   51.1427 H       1  ZINC000563265674    0.1400
     43 H43         2.8600    3.3240   50.0085 H       1  ZINC000563265674    0.1500
     44 H44         1.3562    5.2106   50.4962 H       1  ZINC000563265674    0.1500
@<TRIPOS>BOND
     1     1     2    1
     2     1    26    1
     3     1    27    1
     4     1    28    1
     5     2    25    1
     6     2     3    2
     7     3     4    1
     8     4     5    1
     9     5     6    1
    10     5    25    2
    11     6     7    1
    12     6     8    1
    13     6     9    1
    14     7    29    1
    15     7    30    1
    16     7    31    1
    17     8    32    1
    18     8    33    1
    19     8    34    1
    20     9    10    1
    21     9    35    1
    22    10    11    1
    23    10    36    1
    24    10    37    1
    25    11    12    2
    26    11    13   am
    27    13    14    1
    28    13    38    1
    29    14    23   ar
    30    14    15   ar
    31    15    16   ar
    32    15    39    1
    33    16    17    1
    34    16    21   ar
    35    17    18    1
    36    17    19    2
    37    17    20    2
    38    18    40    1
    39    18    41    1
    40    18    42    1
    41    21    22   ar
    42    21    43    1
    43    22    23   ar
    44    22    44    1
    45    23    24    1
@<TRIPOS>SUBSTRUCTURE
     1 ZINC000563265674        1 TEMP              0 ****  ****    0 ROOT


##########                                Name:    ZINC000744839011
##########                DOCK_Rotatable_Bonds:                  10
##########                         Heavy_Atoms:                  24
##########                    Molecular_Weight:              378.83
##########                DOCK_Rotatable_Bonds:                  10
##########                       Formal_Charge:           0.0300002
##########                     HBond_Acceptors:                   9
##########                        HBond_Donors:                   0
##########                         Heavy_Atoms:                  24
##########                          Grid_Score:          -34.816063
##########                     Grid_vdw_energy:          -30.086355
##########                      Grid_es_energy:           -4.729706
##########           Internal_energy_repulsive:            6.339024

@<TRIPOS>MOLECULE
ZINC000744839011
 43 43 1 0 0
SMALL
USER_CHARGES


@<TRIPOS>ATOM
      1 C1        -13.6421   -4.0896   57.0063 C.3     1  ZINC000744839011    0.0400
      2 O2        -12.1986   -3.9416   56.9514 O.3     1  ZINC000744839011   -0.3600
      3 C3        -11.7072   -2.6918   57.0615 C.2     1  ZINC000744839011    0.5100
      4 O4        -11.5796   -1.9997   56.0709 O.2     1  ZINC000744839011   -0.5000
      5 C5        -11.3242   -2.1640   58.3841 C.ar    1  ZINC000744839011   -0.1600
      6 C6        -10.2178   -2.6916   59.0555 C.ar    1  ZINC000744839011   -0.0100
      7 C7         -9.8628   -2.1958   60.2904 C.ar    1  ZINC000744839011   -0.2100
      8 C8        -10.6027   -1.1722   60.8695 C.ar    1  ZINC000744839011    0.1800
      9 O9        -10.2493   -0.6866   62.0867 O.3     1  ZINC000744839011   -0.2900
     10 C10        -9.0927    0.1510   62.1400 C.3     1  ZINC000744839011    0.0500
     11 C11        -8.8878    0.6468   63.5730 C.3     1  ZINC000744839011    0.0600
     12 O12        -8.2005   -0.3733   64.3445 O.3     1  ZINC000744839011   -0.3400
     13 C13        -8.3043   -0.3001   65.6808 C.2     1  ZINC000744839011    0.5000
     14 O14        -8.5736   -1.2888   66.3208 O.2     1  ZINC000744839011   -0.4900
     15 C15        -8.0849    1.0153   66.3826 C.3     1  ZINC000744839011   -0.6400
     16 S16        -6.3460    1.1522   66.8808 S.o2    1  ZINC000744839011    2.4400
     17 O17        -6.2700    1.9720   68.0390 O.2     1  ZINC000744839011   -0.9100
     18 O18        -5.7810   -0.1512   66.9152 O.2     1  ZINC000744839011   -0.9100
     19 C19        -5.6259    2.0574   65.4836 C.3     1  ZINC000744839011   -0.5700
     20 C20        -5.8830    3.5555   65.6596 C.3     1  ZINC000744839011   -0.1500
     21 C21        -4.1184    1.8012   65.4324 C.3     1  ZINC000744839011   -0.1500
     22 C22       -11.7046   -0.6433   60.2048 C.ar    1  ZINC000744839011   -0.0800
     23 Cl23      -12.6247    0.6361   60.9333 Cl      1  ZINC000744839011   -0.0400
     24 C24       -12.0634   -1.1302   58.9672 C.ar    1  ZINC000744839011   -0.0100
     25 H25       -14.0098   -3.7133   57.9609 H       1  ZINC000744839011    0.0700
     26 H26       -14.0965   -3.5236   56.1932 H       1  ZINC000744839011    0.0700
     27 H27       -13.9033   -5.1431   56.9061 H       1  ZINC000744839011    0.1100
     28 H28        -9.6422   -3.4876   58.6067 H       1  ZINC000744839011    0.1500
     29 H29        -9.0081   -2.6036   60.8097 H       1  ZINC000744839011    0.1500
     30 H30        -8.2178   -0.4170   61.8235 H       1  ZINC000744839011    0.0900
     31 H31        -9.2312    1.0046   61.4766 H       1  ZINC000744839011    0.1000
     32 H32        -8.2892    1.5576   63.5602 H       1  ZINC000744839011    0.1100
     33 H33        -9.8565    0.8549   64.0274 H       1  ZINC000744839011    0.0900
     34 H34        -8.3349    1.8336   65.7074 H       1  ZINC000744839011    0.1700
     35 H35        -8.7211    1.0662   67.2662 H       1  ZINC000744839011    0.1700
     36 H36        -6.0842    1.7169   64.5550 H       1  ZINC000744839011    0.1400
     37 H37        -5.4503    4.0994   64.8201 H       1  ZINC000744839011    0.0900
     38 H38        -6.9570    3.7380   65.6961 H       1  ZINC000744839011    0.0700
     39 H39        -5.4248    3.8961   66.5882 H       1  ZINC000744839011    0.0800
     40 H40        -3.9353    0.7341   65.3070 H       1  ZINC000744839011    0.0800
     41 H41        -3.6857    2.3453   64.5928 H       1  ZINC000744839011    0.0900
     42 H42        -3.6602    2.1419   66.3608 H       1  ZINC000744839011    0.0800
     43 H43       -12.9188   -0.7195   58.4516 H       1  ZINC000744839011    0.1600
@<TRIPOS>BOND
     1     1     2    1
     2     1    25    1
     3     1    26    1
     4     1    27    1
     5     2     3    1
     6     3     4    2
     7     3     5    1
     8     5    24   ar
     9     5     6   ar
    10     6     7   ar
    11     6    28    1
    12     7     8   ar
    13     7    29    1
    14     8     9    1
    15     8    22   ar
    16     9    10    1
    17    10    11    1
    18    10    30    1
    19    10    31    1
    20    11    12    1
    21    11    32    1
    22    11    33    1
    23    12    13    1
    24    13    14    2
    25    13    15    1
    26    15    16    1
    27    15    34    1
    28    15    35    1
    29    16    17    2
    30    16    18    2
    31    16    19    1
    32    19    20    1
    33    19    21    1
    34    19    36    1
    35    20    37    1
    36    20    38    1
    37    20    39    1
    38    21    40    1
    39    21    41    1
    40    21    42    1
    41    22    23    1
    42    22    24   ar
    43    24    43    1
@<TRIPOS>SUBSTRUCTURE
     1 ZINC000744839011        1 TEMP              0 ****  ****    0 ROOT


##########                                Name:    ZINC001207290212
##########                DOCK_Rotatable_Bonds:                   8
##########                         Heavy_Atoms:                  23
##########                    Molecular_Weight:             344.435
##########                DOCK_Rotatable_Bonds:                   8
##########                       Formal_Charge:               -0.03
##########                     HBond_Acceptors:                   9
##########                        HBond_Donors:                   2
##########                         Heavy_Atoms:                  23
##########                          Grid_Score:          -34.742188
##########                     Grid_vdw_energy:          -29.615398
##########                      Grid_es_energy:           -5.126788
##########           Internal_energy_repulsive:            5.749050

@<TRIPOS>MOLECULE
ZINC001207290212
 47 48 1 0 0
SMALL
USER_CHARGES


@<TRIPOS>ATOM
      1 C1         -4.5815    2.8923   64.5257 C.3     1  ZINC001207290212   -0.1500
      2 C2         -4.3577    3.1982   66.0081 C.3     1  ZINC001207290212   -0.6300
      3 S3         -3.9007    1.6734   66.8778 S.o2    1  ZINC001207290212    2.6100
      4 O4         -2.8040    1.0407   66.2325 O.2     1  ZINC001207290212   -0.9500
      5 O5         -3.9028    1.8813   68.2836 O.2     1  ZINC001207290212   -0.9500
      6 N6         -5.1754    0.6496   66.6145 N.am    1  ZINC001207290212   -1.1100
      7 C7         -6.5181    1.0196   67.0689 C.3     1  ZINC001207290212    0.0900
      8 C8         -7.5441    0.4370   66.1313 C.2     1  ZINC001207290212    0.5100
      9 O9         -7.8540   -0.7321   66.2222 O.2     1  ZINC001207290212   -0.5300
     10 N10        -8.1172    1.2150   65.1918 N.am    1  ZINC001207290212   -0.7200
     11 C11        -9.1158    0.6491   64.2816 C.3     1  ZINC001207290212    0.1400
     12 H12        -9.8272    0.0363   64.8352 H       1  ZINC001207290212    0.1000
     13 C13        -8.4281   -0.1877   63.1870 C.3     1  ZINC001207290212    0.0200
     14 N14        -8.7363    0.4553   61.8913 N.3     1  ZINC001207290212   -0.5100
     15 C15        -8.8755   -0.5467   60.8262 C.3     1  ZINC001207290212    0.1300
     16 C16        -8.9042    0.1441   59.4872 C.2     1  ZINC001207290212    0.0000
     17 C17        -9.8794    0.0514   58.5680 C.2     1  ZINC001207290212   -0.0700
     18 O18        -9.5142    0.8202   57.5235 O.3     1  ZINC001207290212   -0.2000
     19 C19        -8.3278    1.3697   57.8157 C.2     1  ZINC001207290212    0.1900
     20 C20        -7.5495    2.3031   56.9245 C.3     1  ZINC001207290212   -0.0600
     21 N21        -7.9608    0.9691   58.9995 N.2     1  ZINC001207290212   -0.4700
     22 C22       -10.0089    1.1929   62.0979 C.3     1  ZINC001207290212    0.0400
     23 C23        -9.8540    1.7779   63.5260 C.3     1  ZINC001207290212   -0.1000
     24 H24        -9.2516    2.6862   63.5075 H       1  ZINC001207290212    0.0900
     25 C25       -11.2236    2.0514   64.1505 C.3     1  ZINC001207290212   -0.1400
     26 H26        -3.6647    2.4895   64.0954 H       1  ZINC001207290212    0.0700
     27 H27        -5.3832    2.1611   64.4227 H       1  ZINC001207290212    0.0700
     28 H28        -4.8562    3.8086   64.0032 H       1  ZINC001207290212    0.0800
     29 H29        -3.5560    3.9295   66.1111 H       1  ZINC001207290212    0.1300
     30 H30        -5.2745    3.6011   66.4384 H       1  ZINC001207290212    0.1300
     31 H31        -5.0330   -0.1952   66.1595 H       1  ZINC001207290212    0.4300
     32 H32        -6.6817    0.6304   68.0738 H       1  ZINC001207290212    0.1000
     33 H33        -6.6114    2.1056   67.0801 H       1  ZINC001207290212    0.1100
     34 H34        -7.8684    2.1497   65.1184 H       1  ZINC001207290212    0.4100
     35 H35        -7.3502   -0.1977   63.3494 H       1  ZINC001207290212    0.0800
     36 H36        -8.8173   -1.2058   63.1982 H       1  ZINC001207290212    0.0500
     37 H37        -8.0309   -1.2348   60.8620 H       1  ZINC001207290212    0.0600
     38 H38        -9.8027   -1.1019   60.9685 H       1  ZINC001207290212    0.1000
     39 H39       -10.7856   -0.5304   58.6506 H       1  ZINC001207290212    0.2100
     40 H40        -8.1010    2.4654   55.9984 H       1  ZINC001207290212    0.0900
     41 H41        -7.4061    3.2562   57.4337 H       1  ZINC001207290212    0.1000
     42 H42        -6.5786    1.8630   56.6970 H       1  ZINC001207290212    0.1000
     43 H43       -10.1141    1.9918   61.3639 H       1  ZINC001207290212    0.0900
     44 H44       -10.8595    0.5128   62.0523 H       1  ZINC001207290212    0.0500
     45 H45       -11.7978    1.1256   64.1870 H       1  ZINC001207290212    0.0600
     46 H46       -11.0915    2.4371   65.1614 H       1  ZINC001207290212    0.0600
     47 H47       -11.7573    2.7865   63.5481 H       1  ZINC001207290212    0.0600
@<TRIPOS>BOND
     1     1     2    1
     2     1    26    1
     3     1    27    1
     4     1    28    1
     5     2     3    1
     6     2    29    1
     7     2    30    1
     8     3     4    2
     9     3     5    2
    10     3     6   am
    11     6     7    1
    12     6    31    1
    13     7     8    1
    14     7    32    1
    15     7    33    1
    16     8     9    2
    17     8    10   am
    18    10    11    1
    19    10    34    1
    20    11    12    1
    21    11    23    1
    22    11    13    1
    23    13    14    1
    24    13    35    1
    25    13    36    1
    26    14    15    1
    27    14    22    1
    28    15    16    1
    29    15    37    1
    30    15    38    1
    31    16    21    1
    32    16    17    2
    33    17    18    1
    34    17    39    1
    35    18    19    1
    36    19    20    1
    37    19    21    2
    38    20    40    1
    39    20    41    1
    40    20    42    1
    41    22    23    1
    42    22    43    1
    43    22    44    1
    44    23    24    1
    45    23    25    1
    46    25    45    1
    47    25    46    1
    48    25    47    1
@<TRIPOS>SUBSTRUCTURE
     1 ZINC001207290212        1 TEMP              0 ****  ****    0 ROOT


##########                                Name:    ZINC000583220082
##########                DOCK_Rotatable_Bonds:                   9
##########                         Heavy_Atoms:                  29
##########                    Molecular_Weight:             417.492
##########                DOCK_Rotatable_Bonds:                   9
##########                       Formal_Charge:          -0.0400006
##########                     HBond_Acceptors:                  11
##########                        HBond_Donors:                   3
##########                         Heavy_Atoms:                  29
##########                          Grid_Score:          -34.665569
##########                     Grid_vdw_energy:          -34.169064
##########                      Grid_es_energy:           -0.496506
##########           Internal_energy_repulsive:           16.023666

@<TRIPOS>MOLECULE
ZINC000583220082
 52 54 1 0 0
SMALL
USER_CHARGES


@<TRIPOS>ATOM
      1 C1        -10.7510   -2.6199   59.4692 C.3     1  ZINC000583220082    0.0800
      2 N2        -11.7505   -2.3833   58.4246 N.am    1  ZINC000583220082   -0.6300
      3 C3        -12.7376   -1.3127   58.5842 C.3     1  ZINC000583220082    0.0800
      4 C4        -11.7619   -3.1506   57.3165 C.2     1  ZINC000583220082    0.5100
      5 O5        -10.9456   -4.0380   57.1851 O.2     1  ZINC000583220082   -0.5300
      6 C6        -12.7888   -2.9061   56.2412 C.3     1  ZINC000583220082   -0.1000
      7 C7        -12.2092   -1.9936   55.1911 C.ar    1  ZINC000583220082   -0.0800
      8 C8        -11.1958   -2.4470   54.3666 C.ar    1  ZINC000583220082   -0.0800
      9 C9        -10.6623   -1.6136   53.4033 C.ar    1  ZINC000583220082   -0.1400
     10 C10       -11.1454   -0.3186   53.2627 C.ar    1  ZINC000583220082    0.1400
     11 N11       -10.6083    0.5272   52.2888 N.am    1  ZINC000583220082   -0.6400
     12 C12        -9.8989    1.6127   52.6560 C.2     1  ZINC000583220082    0.5100
     13 O13        -9.7264    1.8555   53.8327 O.2     1  ZINC000583220082   -0.4900
     14 C14        -9.3247    2.5169   51.6150 C.2     1  ZINC000583220082    0.5100
     15 O15        -9.9656    3.4671   51.2162 O.2     1  ZINC000583220082   -0.5100
     16 N16        -8.0948    2.2775   51.1186 N.am    1  ZINC000583220082   -0.5800
     17 C17        -7.5082    3.1587   50.0975 C.3     1  ZINC000583220082    0.0600
     18 C18        -6.1091    3.5774   50.5616 C.3     1  ZINC000583220082    0.0300
     19 N19        -5.3208    2.3779   50.8739 N.3     1  ZINC000583220082   -0.4300
     20 C20        -4.0042    2.7057   51.1406 C.2     1  ZINC000583220082    0.2900
     21 N21        -3.4809    3.0333   52.3031 N.2     1  ZINC000583220082   -0.5700
     22 C22        -2.1928    3.3075   52.3176 C.2     1  ZINC000583220082    0.5400
     23 N23        -1.5441    3.6646   53.4989 N.pl3   1  ZINC000583220082   -0.8200
     24 N24        -1.5443    3.2327   51.1860 N.2     1  ZINC000583220082   -0.5500
     25 S25        -2.6934    2.7661   50.0244 S.3     1  ZINC000583220082    0.2000
     26 C26        -5.9125    1.6269   51.9892 C.3     1  ZINC000583220082    0.0500
     27 C27        -7.3012    1.1316   51.5880 C.3     1  ZINC000583220082    0.1100
     28 C28       -12.1639    0.1335   54.0925 C.ar    1  ZINC000583220082   -0.1200
     29 C29       -12.6959   -0.7069   55.0505 C.ar    1  ZINC000583220082   -0.0800
     30 H30       -11.1425   -3.3371   60.1908 H       1  ZINC000583220082    0.0500
     31 H31        -9.8416   -3.0176   59.0186 H       1  ZINC000583220082    0.0800
     32 H32       -10.5253   -1.6814   59.9754 H       1  ZINC000583220082    0.0700
     33 H33       -12.5726   -0.8052   59.5347 H       1  ZINC000583220082    0.0800
     34 H34       -12.6337   -0.5980   57.7679 H       1  ZINC000583220082    0.0600
     35 H35       -13.7409   -1.7383   58.5690 H       1  ZINC000583220082    0.0600
     36 H36       -13.0688   -3.8549   55.7836 H       1  ZINC000583220082    0.1000
     37 H37       -13.6710   -2.4403   56.6804 H       1  ZINC000583220082    0.1000
     38 H38       -10.8208   -3.4539   54.4763 H       1  ZINC000583220082    0.1300
     39 H39        -9.8705   -1.9680   52.7601 H       1  ZINC000583220082    0.1300
     40 H40       -10.7461    0.3333   51.3484 H       1  ZINC000583220082    0.4200
     41 H41        -7.4350    2.6239   49.1505 H       1  ZINC000583220082    0.0900
     42 H42        -8.1331    4.0432   49.9744 H       1  ZINC000583220082    0.1700
     43 H43        -5.6162    4.1404   49.7688 H       1  ZINC000583220082    0.1100
     44 H44        -6.1924    4.2000   51.4524 H       1  ZINC000583220082    0.0700
     45 H45        -0.6929    4.1283   53.4637 H       1  ZINC000583220082    0.4200
     46 H46        -1.9442    3.4494   54.3560 H       1  ZINC000583220082    0.4200
     47 H47        -5.2772    0.7750   52.2317 H       1  ZINC000583220082    0.1100
     48 H48        -5.9987    2.2766   52.8600 H       1  ZINC000583220082    0.0600
     49 H49        -7.7893    0.6740   52.4484 H       1  ZINC000583220082    0.1100
     50 H50        -7.2113    0.4019   50.7834 H       1  ZINC000583220082    0.0900
     51 H51       -12.5417    1.1396   53.9859 H       1  ZINC000583220082    0.1400
     52 H52       -13.4877   -0.3562   55.6958 H       1  ZINC000583220082    0.1300
@<TRIPOS>BOND
     1     1     2    1
     2     1    30    1
     3     1    31    1
     4     1    32    1
     5     2     3    1
     6     2     4   am
     7     3    33    1
     8     3    34    1
     9     3    35    1
    10     4     5    2
    11     4     6    1
    12     6     7    1
    13     6    36    1
    14     6    37    1
    15     7    29   ar
    16     7     8   ar
    17     8     9   ar
    18     8    38    1
    19     9    10   ar
    20     9    39    1
    21    10    11    1
    22    10    28   ar
    23    11    12   am
    24    11    40    1
    25    12    13    2
    26    12    14    1
    27    14    15    2
    28    14    16   am
    29    16    27    1
    30    16    17    1
    31    17    18    1
    32    17    41    1
    33    17    42    1
    34    18    19    1
    35    18    43    1
    36    18    44    1
    37    19    20    1
    38    19    26    1
    39    20    25    1
    40    20    21    2
    41    21    22    1
    42    22    23    1
    43    22    24    2
    44    23    45    1
    45    23    46    1
    46    24    25    1
    47    26    27    1
    48    26    47    1
    49    26    48    1
    50    27    49    1
    51    27    50    1
    52    28    29   ar
    53    28    51    1
    54    29    52    1
@<TRIPOS>SUBSTRUCTURE
     1 ZINC000583220082        1 TEMP              0 ****  ****    0 ROOT


##########                                Name:    ZINC000486710336
##########                DOCK_Rotatable_Bonds:                   6
##########                         Heavy_Atoms:                  31
##########                    Molecular_Weight:             420.555
##########                DOCK_Rotatable_Bonds:                   6
##########                       Formal_Charge:         1.49012e-07
##########                     HBond_Acceptors:                   6
##########                        HBond_Donors:                   1
##########                         Heavy_Atoms:                  31
##########                          Grid_Score:          -34.634953
##########                     Grid_vdw_energy:          -34.190189
##########                      Grid_es_energy:           -0.444764
##########           Internal_energy_repulsive:           52.055992

@<TRIPOS>MOLECULE
ZINC000486710336
 63 67 1 0 0
SMALL
USER_CHARGES


@<TRIPOS>ATOM
      1 C1         -9.0442    3.8728   49.8172 C.3     1  ZINC000486710336    0.1000
      2 N2         -8.0238    3.1219   50.5529 N.pl3   1  ZINC000486710336   -0.3900
      3 N3         -6.6371    3.2802   50.4343 N.2     1  ZINC000486710336   -0.2800
      4 C4         -6.0536    2.4378   51.2480 C.2     1  ZINC000486710336    0.1000
      5 C5         -4.5666    2.2785   51.4335 C.3     1  ZINC000486710336   -0.0100
      6 C6         -3.8118    2.7001   50.1484 C.3     1  ZINC000486710336   -0.1200
      7 C7         -2.4023    3.0579   50.6817 C.3     1  ZINC000486710336   -0.1200
      8 C8         -2.6736    3.7479   52.0345 C.3     1  ZINC000486710336   -0.1200
      9 C9         -4.0497    3.2522   52.5125 C.3     1  ZINC000486710336   -0.1100
     10 C10        -7.0423    1.7110   51.9157 C.2     1  ZINC000486710336   -0.2600
     11 C11        -8.2537    2.1521   51.4759 C.2     1  ZINC000486710336    0.3000
     12 N12        -9.4990    1.6885   51.8907 N.am    1  ZINC000486710336   -0.6200
     13 C13        -9.6875    0.3732   52.1161 C.2     1  ZINC000486710336    0.5100
     14 O14        -8.7718   -0.4075   51.9560 O.2     1  ZINC000486710336   -0.4800
     15 C15       -11.0227   -0.1238   52.5627 C.2     1  ZINC000486710336    0.5300
     16 O16       -11.6834   -0.8303   51.8297 O.2     1  ZINC000486710336   -0.5100
     17 N17       -11.4943    0.2121   53.7797 N.am    1  ZINC000486710336   -0.5800
     18 C18       -10.8094    1.0618   54.7705 C.3     1  ZINC000486710336    0.1000
     19 C19       -11.7183    1.1307   56.0178 C.3     1  ZINC000486710336   -0.0600
     20 H20       -12.3424    2.0240   55.9925 H       1  ZINC000486710336    0.1000
     21 C21       -10.8968    1.0907   57.2806 C.ar    1  ZINC000486710336   -0.0700
     22 C22       -11.4938    0.7626   58.4835 C.ar    1  ZINC000486710336   -0.1100
     23 C23       -10.7403    0.7259   59.6418 C.ar    1  ZINC000486710336   -0.1200
     24 C24        -9.3897    1.0169   59.5972 C.ar    1  ZINC000486710336   -0.1200
     25 C25        -8.7925    1.3442   58.3942 C.ar    1  ZINC000486710336   -0.1200
     26 C26        -9.5451    1.3766   57.2352 C.ar    1  ZINC000486710336   -0.1100
     27 C27       -12.5884   -0.1560   55.8781 C.3     1  ZINC000486710336   -0.0800
     28 H28       -13.5338   -0.0865   56.4161 H       1  ZINC000486710336    0.1100
     29 C29       -11.7250   -1.3221   56.3641 C.3     1  ZINC000486710336   -0.1100
     30 C30       -12.3038   -2.6544   55.8938 C.3     1  ZINC000486710336   -0.1200
     31 C31       -12.2977   -2.6784   54.3615 C.3     1  ZINC000486710336   -0.1100
     32 C32       -13.2188   -1.5674   53.8573 C.3     1  ZINC000486710336   -0.1400
     33 C33       -12.7809   -0.1978   54.3487 C.3     1  ZINC000486710336    0.1400
     34 H34       -13.5316    0.5344   54.0510 H       1  ZINC000486710336    0.0800
     35 H35        -9.3103    4.7690   50.3777 H       1  ZINC000486710336    0.0800
     36 H36        -8.6523    4.1577   48.8409 H       1  ZINC000486710336    0.1000
     37 H37        -9.9292    3.2502   49.6860 H       1  ZINC000486710336    0.0800
     38 H38        -4.3245    1.2498   51.7005 H       1  ZINC000486710336    0.0900
     39 H39        -3.7586    1.8714   49.4422 H       1  ZINC000486710336    0.0700
     40 H40        -4.2837    3.5695   49.6907 H       1  ZINC000486710336    0.0800
     41 H41        -1.8085    2.1553   50.8261 H       1  ZINC000486710336    0.0700
     42 H42        -1.8984    3.7419   49.9989 H       1  ZINC000486710336    0.0700
     43 H43        -1.9053    3.4699   52.7561 H       1  ZINC000486710336    0.0600
     44 H44        -2.6907    4.8299   51.9050 H       1  ZINC000486710336    0.0600
     45 H45        -4.7347    4.0940   52.6150 H       1  ZINC000486710336    0.0700
     46 H46        -3.9493    2.7339   53.4662 H       1  ZINC000486710336    0.0700
     47 H47        -6.8757    0.9393   52.6526 H       1  ZINC000486710336    0.1700
     48 H48       -10.2310    2.3121   52.0175 H       1  ZINC000486710336    0.4200
     49 H49        -9.8482    0.6215   55.0358 H       1  ZINC000486710336    0.0900
     50 H50       -10.6623    2.0620   54.3630 H       1  ZINC000486710336    0.0800
     51 H51       -12.5490    0.5353   58.5182 H       1  ZINC000486710336    0.1200
     52 H52       -11.2069    0.4702   60.5816 H       1  ZINC000486710336    0.1200
     53 H53        -8.8011    0.9889   60.5023 H       1  ZINC000486710336    0.1200
     54 H54        -7.7373    1.5719   58.3595 H       1  ZINC000486710336    0.1200
     55 H55        -9.0785    1.6323   56.2954 H       1  ZINC000486710336    0.1200
     56 H56       -10.7151   -1.2100   55.9693 H       1  ZINC000486710336    0.0700
     57 H57       -11.6873   -1.3114   57.4533 H       1  ZINC000486710336    0.0700
     58 H58       -11.6934   -3.4732   56.2747 H       1  ZINC000486710336    0.0600
     59 H59       -13.3263   -2.7576   56.2571 H       1  ZINC000486710336    0.0600
     60 H60       -11.2849   -2.5097   53.9959 H       1  ZINC000486710336    0.0500
     61 H61       -12.6599   -3.6438   54.0082 H       1  ZINC000486710336    0.0600
     62 H62       -13.2180   -1.5702   52.7673 H       1  ZINC000486710336    0.1000
     63 H63       -14.2319   -1.7544   54.2131 H       1  ZINC000486710336    0.0700
@<TRIPOS>BOND
     1     1     2    1
     2     1    35    1
     3     1    36    1
     4     1    37    1
     5     2    11    1
     6     2     3    1
     7     3     4    2
     8     4     5    1
     9     4    10    1
    10     5     9    1
    11     5     6    1
    12     5    38    1
    13     6     7    1
    14     6    39    1
    15     6    40    1
    16     7     8    1
    17     7    41    1
    18     7    42    1
    19     8     9    1
    20     8    43    1
    21     8    44    1
    22     9    45    1
    23     9    46    1
    24    10    11    2
    25    10    47    1
    26    11    12    1
    27    12    13   am
    28    12    48    1
    29    13    14    2
    30    13    15    1
    31    15    16    2
    32    15    17   am
    33    17    33    1
    34    17    18    1
    35    18    19    1
    36    18    49    1
    37    18    50    1
    38    19    20    1
    39    19    21    1
    40    19    27    1
    41    21    26   ar
    42    21    22   ar
    43    22    23   ar
    44    22    51    1
    45    23    24   ar
    46    23    52    1
    47    24    25   ar
    48    24    53    1
    49    25    26   ar
    50    25    54    1
    51    26    55    1
    52    27    28    1
    53    27    33    1
    54    27    29    1
    55    29    30    1
    56    29    56    1
    57    29    57    1
    58    30    31    1
    59    30    58    1
    60    30    59    1
    61    31    32    1
    62    31    60    1
    63    31    61    1
    64    32    33    1
    65    32    62    1
    66    32    63    1
    67    33    34    1
@<TRIPOS>SUBSTRUCTURE
     1 ZINC000486710336        1 TEMP              0 ****  ****    0 ROOT


##########                                Name:    ZINC000008416770
##########                DOCK_Rotatable_Bonds:                  13
##########                         Heavy_Atoms:                  30
##########                    Molecular_Weight:             412.442
##########                DOCK_Rotatable_Bonds:                  13
##########                       Formal_Charge:          -0.0199998
##########                     HBond_Acceptors:                   8
##########                        HBond_Donors:                   2
##########                         Heavy_Atoms:                  30
##########                          Grid_Score:          -34.612511
##########                     Grid_vdw_energy:          -34.821033
##########                      Grid_es_energy:            0.208521
##########           Internal_energy_repulsive:            9.021889

@<TRIPOS>MOLECULE
ZINC000008416770
 54 55 1 0 0
SMALL
USER_CHARGES


@<TRIPOS>ATOM
      1 C1         -2.7405    4.2271   50.9061 C.3     1  ZINC000008416770   -0.1500
      2 C2         -3.6303    4.1412   52.1478 C.3     1  ZINC000008416770    0.0600
      3 O3         -4.6654    3.1457   51.9334 O.3     1  ZINC000008416770   -0.3500
      4 C4         -5.5399    2.9462   52.9391 C.2     1  ZINC000008416770    0.5100
      5 O5         -5.4401    3.5864   53.9670 O.2     1  ZINC000008416770   -0.5100
      6 C6         -6.6178    1.9506   52.7922 C.ar    1  ZINC000008416770   -0.1500
      7 C7         -7.6068    1.8387   53.7740 C.ar    1  ZINC000008416770   -0.0400
      8 C8         -8.6117    0.9086   53.6334 C.ar    1  ZINC000008416770   -0.1400
      9 C9         -8.6441    0.0805   52.5156 C.ar    1  ZINC000008416770    0.1800
     10 N10        -9.6634   -0.8603   52.3765 N.am    1  ZINC000008416770   -0.6700
     11 C11       -10.9034   -0.4638   52.0277 C.2     1  ZINC000008416770    0.5200
     12 O12       -11.1324    0.7114   51.8347 O.2     1  ZINC000008416770   -0.5100
     13 C13       -12.0052   -1.4809   51.8773 C.3     1  ZINC000008416770   -0.1300
     14 C14       -12.9146   -1.4331   53.1068 C.3     1  ZINC000008416770   -0.1000
     15 C15       -12.3530   -2.3271   54.1821 C.2     1  ZINC000008416770    0.4700
     16 O16       -11.9689   -3.4385   53.9041 O.2     1  ZINC000008416770   -0.5100
     17 O17       -12.2794   -1.8889   55.4487 O.3     1  ZINC000008416770   -0.3300
     18 C18       -11.4307   -2.6386   56.3575 C.3     1  ZINC000008416770    0.0500
     19 C19       -11.2149   -1.8401   57.6172 C.2     1  ZINC000008416770    0.5100
     20 O20       -11.5751   -0.6832   57.6711 O.2     1  ZINC000008416770   -0.4900
     21 N21       -10.6217   -2.4116   58.6839 N.am    1  ZINC000008416770   -0.6700
     22 C22       -10.4213   -1.6703   59.8536 C.ar    1  ZINC000008416770    0.1400
     23 C23        -9.1325   -1.4168   60.3045 C.ar    1  ZINC000008416770   -0.1400
     24 C24        -8.9380   -0.6847   61.4594 C.ar    1  ZINC000008416770   -0.1000
     25 C25       -10.0249   -0.2047   62.1667 C.ar    1  ZINC000008416770   -0.1000
     26 C26        -9.8090    0.5934   63.4268 C.3     1  ZINC000008416770   -0.1200
     27 C27       -11.3094   -0.4549   61.7201 C.ar    1  ZINC000008416770   -0.1000
     28 C28       -11.5105   -1.1815   60.5630 C.ar    1  ZINC000008416770   -0.1200
     29 C29        -7.6616    0.1895   51.5362 C.ar    1  ZINC000008416770   -0.1600
     30 C30        -6.6565    1.1206   51.6679 C.ar    1  ZINC000008416770   -0.0300
     31 H31        -2.2790    3.2570   50.7219 H       1  ZINC000008416770    0.0700
     32 H32        -3.3452    4.5113   50.0448 H       1  ZINC000008416770    0.0700
     33 H33        -1.9636    4.9745   51.0670 H       1  ZINC000008416770    0.0800
     34 H34        -3.0258    3.8571   53.0091 H       1  ZINC000008416770    0.0700
     35 H35        -4.0919    5.1113   52.3320 H       1  ZINC000008416770    0.0700
     36 H36        -7.5821    2.4808   54.6420 H       1  ZINC000008416770    0.1400
     37 H37        -9.3758    0.8213   54.3916 H       1  ZINC000008416770    0.1400
     38 H38        -9.4802   -1.8003   52.5307 H       1  ZINC000008416770    0.4200
     39 H39       -12.5888   -1.2552   50.9848 H       1  ZINC000008416770    0.1100
     40 H40       -11.5707   -2.4764   51.7853 H       1  ZINC000008416770    0.1100
     41 H41       -12.9705   -0.4097   53.4778 H       1  ZINC000008416770    0.1200
     42 H42       -13.9127   -1.7757   52.8340 H       1  ZINC000008416770    0.1200
     43 H43       -11.9107   -3.5854   56.6051 H       1  ZINC000008416770    0.1100
     44 H44       -10.4698   -2.8322   55.8809 H       1  ZINC000008416770    0.1100
     45 H45       -10.3337   -3.3369   58.6409 H       1  ZINC000008416770    0.4100
     46 H46        -8.2832   -1.7921   59.7529 H       1  ZINC000008416770    0.1300
     47 H47        -7.9360   -0.4873   61.8106 H       1  ZINC000008416770    0.1300
     48 H48        -9.7339    1.6519   63.1780 H       1  ZINC000008416770    0.0700
     49 H49       -10.6490    0.4378   64.1038 H       1  ZINC000008416770    0.0700
     50 H50        -8.8878    0.2675   63.9099 H       1  ZINC000008416770    0.0700
     51 H51       -12.1563   -0.0786   62.2749 H       1  ZINC000008416770    0.1300
     52 H52       -12.5141   -1.3766   60.2146 H       1  ZINC000008416770    0.1300
     53 H53        -7.6900   -0.4547   50.6698 H       1  ZINC000008416770    0.1400
     54 H54        -5.8943    1.2046   50.9074 H       1  ZINC000008416770    0.1400
@<TRIPOS>BOND
     1     1     2    1
     2     1    31    1
     3     1    32    1
     4     1    33    1
     5     2     3    1
     6     2    34    1
     7     2    35    1
     8     3     4    1
     9     4     5    2
    10     4     6    1
    11     6    30   ar
    12     6     7   ar
    13     7     8   ar
    14     7    36    1
    15     8     9   ar
    16     8    37    1
    17     9    10    1
    18     9    29   ar
    19    10    11   am
    20    10    38    1
    21    11    12    2
    22    11    13    1
    23    13    14    1
    24    13    39    1
    25    13    40    1
    26    14    15    1
    27    14    41    1
    28    14    42    1
    29    15    16    2
    30    15    17    1
    31    17    18    1
    32    18    19    1
    33    18    43    1
    34    18    44    1
    35    19    20    2
    36    19    21   am
    37    21    22    1
    38    21    45    1
    39    22    28   ar
    40    22    23   ar
    41    23    24   ar
    42    23    46    1
    43    24    25   ar
    44    24    47    1
    45    25    26    1
    46    25    27   ar
    47    26    48    1
    48    26    49    1
    49    26    50    1
    50    27    28   ar
    51    27    51    1
    52    28    52    1
    53    29    30   ar
    54    29    53    1
    55    30    54    1
@<TRIPOS>SUBSTRUCTURE
     1 ZINC000008416770        1 TEMP              0 ****  ****    0 ROOT


##########                                Name:    ZINC001105793963
##########                DOCK_Rotatable_Bonds:                   9
##########                         Heavy_Atoms:                  24
##########                    Molecular_Weight:             337.422
##########                DOCK_Rotatable_Bonds:                   9
##########                       Formal_Charge:          -0.0100003
##########                     HBond_Acceptors:                   8
##########                        HBond_Donors:                   2
##########                         Heavy_Atoms:                  24
##########                          Grid_Score:          -34.584805
##########                     Grid_vdw_energy:          -34.994652
##########                      Grid_es_energy:            0.409846
##########           Internal_energy_repulsive:            8.531776

@<TRIPOS>MOLECULE
ZINC001105793963
 51 52 1 0 0
SMALL
USER_CHARGES


@<TRIPOS>ATOM
      1 C1         -4.7388    1.7131   66.1537 C.3     1  ZINC001105793963   -0.1500
      2 C2         -5.7127    0.9689   67.0695 C.3     1  ZINC001105793963   -0.0300
      3 C3         -6.9098    0.5207   66.2714 C.2     1  ZINC001105793963    0.1800
      4 N4         -7.3929    1.0978   65.1976 N.2     1  ZINC001105793963   -0.4800
      5 C5         -8.4534    0.3550   64.8335 C.2     1  ZINC001105793963    0.1700
      6 C6         -9.3534    0.6047   63.6508 C.3     1  ZINC001105793963    0.1500
      7 N7         -8.9142   -0.2214   62.5182 N.3     1  ZINC001105793963   -0.6900
      8 C8         -9.4971    0.2597   61.2585 C.3     1  ZINC001105793963    0.0700
      9 C9        -10.4918   -0.7751   60.7288 C.3     1  ZINC001105793963   -0.1000
     10 H10       -10.8628   -1.3952   61.5448 H       1  ZINC001105793963    0.1000
     11 C11        -9.8276   -1.6531   59.6465 C.3     1  ZINC001105793963    0.1100
     12 N12       -10.8965   -1.8884   58.6481 N.am    1  ZINC001105793963   -0.6200
     13 C13       -11.1646   -3.0256   57.9763 C.2     1  ZINC001105793963    0.5300
     14 O14       -10.4887   -4.0149   58.1648 O.2     1  ZINC001105793963   -0.5300
     15 C15       -12.3041   -3.0680   56.9910 C.3     1  ZINC001105793963    0.1300
     16 H16       -13.1364   -2.4766   57.3725 H       1  ZINC001105793963    0.1100
     17 C17       -11.8414   -2.4923   55.6511 C.3     1  ZINC001105793963   -0.1600
     18 N18       -12.7362   -4.4552   56.8034 N.am    1  ZINC001105793963   -0.7200
     19 C19       -14.0123   -4.7234   56.4628 C.2     1  ZINC001105793963    0.5200
     20 C20       -14.4572   -6.1504   56.2716 C.3     1  ZINC001105793963   -0.1700
     21 O21       -14.8026   -3.8162   56.3101 O.2     1  ZINC001105793963   -0.5500
     22 C22       -11.6040   -0.5900   58.5557 C.3     1  ZINC001105793963    0.1000
     23 C23       -11.6645   -0.0740   60.0121 C.3     1  ZINC001105793963   -0.1000
     24 H24       -11.5312    1.0075   60.0367 H       1  ZINC001105793963    0.0900
     25 C25       -12.9967   -0.4597   60.6581 C.3     1  ZINC001105793963   -0.1500
     26 N26        -8.5592   -0.6178   65.6885 N.2     1  ZINC001105793963   -0.3700
     27 O27        -7.6784   -0.5440   66.5193 O.3     1  ZINC001105793963    0.0800
     28 H28        -4.4135    1.0490   65.3529 H       1  ZINC001105793963    0.0600
     29 H29        -5.2360    2.5831   65.7249 H       1  ZINC001105793963    0.0600
     30 H30        -3.8729    2.0374   66.7310 H       1  ZINC001105793963    0.0800
     31 H31        -5.2153    0.0989   67.4983 H       1  ZINC001105793963    0.1100
     32 H32        -6.0378    1.6330   67.8704 H       1  ZINC001105793963    0.1000
     33 H33       -10.3790    0.3454   63.9135 H       1  ZINC001105793963    0.1000
     34 H34        -9.3046    1.6577   63.3730 H       1  ZINC001105793963    0.0700
     35 H35        -7.9072   -0.2522   62.4621 H       1  ZINC001105793963    0.3500
     36 H36       -10.0134    1.2035   61.4341 H       1  ZINC001105793963    0.0800
     37 H37        -8.7044    0.4102   60.5255 H       1  ZINC001105793963    0.0400
     38 H38        -8.9905   -1.1251   59.1898 H       1  ZINC001105793963    0.0700
     39 H39        -9.4937   -2.5978   60.0756 H       1  ZINC001105793963    0.0900
     40 H40       -12.6655   -2.5230   54.9384 H       1  ZINC001105793963    0.0800
     41 H41       -11.5198   -1.4602   55.7907 H       1  ZINC001105793963    0.0800
     42 H42       -11.0090   -3.0837   55.2696 H       1  ZINC001105793963    0.0600
     43 H43       -12.1038   -5.1807   56.9243 H       1  ZINC001105793963    0.4100
     44 H44       -13.6160   -6.8203   56.4501 H       1  ZINC001105793963    0.0800
     45 H45       -15.2586   -6.3783   56.9743 H       1  ZINC001105793963    0.1000
     46 H46       -14.8186   -6.2848   55.2521 H       1  ZINC001105793963    0.1000
     47 H47       -11.0443    0.1040   57.9286 H       1  ZINC001105793963    0.0800
     48 H48       -12.6102   -0.7327   58.1619 H       1  ZINC001105793963    0.0900
     49 H49       -13.1101   -1.5436   60.6376 H       1  ZINC001105793963    0.0600
     50 H50       -13.0137   -0.1120   61.6910 H       1  ZINC001105793963    0.0600
     51 H51       -13.8153    0.0017   60.1058 H       1  ZINC001105793963    0.0600
@<TRIPOS>BOND
     1     1     2    1
     2     1    28    1
     3     1    29    1
     4     1    30    1
     5     2     3    1
     6     2    31    1
     7     2    32    1
     8     3    27    1
     9     3     4    2
    10     4     5    1
    11     5     6    1
    12     5    26    2
    13     6     7    1
    14     6    33    1
    15     6    34    1
    16     7     8    1
    17     7    35    1
    18     8     9    1
    19     8    36    1
    20     8    37    1
    21     9    10    1
    22     9    23    1
    23     9    11    1
    24    11    12    1
    25    11    38    1
    26    11    39    1
    27    12    13   am
    28    12    22    1
    29    13    14    2
    30    13    15    1
    31    15    16    1
    32    15    17    1
    33    15    18    1
    34    17    40    1
    35    17    41    1
    36    17    42    1
    37    18    19   am
    38    18    43    1
    39    19    20    1
    40    19    21    2
    41    20    44    1
    42    20    45    1
    43    20    46    1
    44    22    23    1
    45    22    47    1
    46    22    48    1
    47    23    24    1
    48    23    25    1
    49    25    49    1
    50    25    50    1
    51    25    51    1
    52    26    27    1
@<TRIPOS>SUBSTRUCTURE
     1 ZINC001105793963        1 TEMP              0 ****  ****    0 ROOT


##########                                Name:    ZINC000572257265
##########                DOCK_Rotatable_Bonds:                  11
##########                         Heavy_Atoms:                  24
##########                    Molecular_Weight:             393.509
##########                DOCK_Rotatable_Bonds:                  11
##########                       Formal_Charge:          -0.0100002
##########                     HBond_Acceptors:                  11
##########                        HBond_Donors:                   3
##########                         Heavy_Atoms:                  24
##########                          Grid_Score:          -34.551723
##########                     Grid_vdw_energy:          -30.078415
##########                      Grid_es_energy:           -4.473307
##########           Internal_energy_repulsive:            6.605803

@<TRIPOS>MOLECULE
ZINC000572257265
 43 43 1 0 0
SMALL
USER_CHARGES


@<TRIPOS>ATOM
      1 C1        -11.4834   -3.1425   56.4612 C.3     1  ZINC000572257265   -0.1300
      2 S2        -11.1736   -2.9132   58.2338 S.3     1  ZINC000572257265   -0.2200
      3 C3        -12.5609   -1.8689   58.7588 C.3     1  ZINC000572257265   -0.1300
      4 C4        -12.3738   -1.4711   60.2243 C.3     1  ZINC000572257265    0.1500
      5 C5        -13.6919   -1.6630   60.9771 C.3     1  ZINC000572257265   -0.1500
      6 O6        -11.3640   -2.2916   60.8152 O.3     1  ZINC000572257265   -0.5400
      7 C7        -11.9497   -0.0033   60.3042 C.3     1  ZINC000572257265    0.0900
      8 N8        -10.6579    0.1690   59.6351 N.am    1  ZINC000572257265   -1.1100
      9 S9         -9.6030    1.3333   60.1584 S.o2    1  ZINC000572257265    2.6900
     10 O10        -8.4029    1.1486   59.4202 O.2     1  ZINC000572257265   -0.9400
     11 O11       -10.3280    2.5555   60.1702 O.2     1  ZINC000572257265   -0.9500
     12 C12        -9.2151    0.9686   61.8380 C.ar    1  ZINC000572257265   -0.6300
     13 C13        -9.4085    1.9264   62.8158 C.ar    1  ZINC000572257265   -0.0400
     14 C14        -9.1042    1.6403   64.1336 C.ar    1  ZINC000572257265   -0.0400
     15 C15        -8.6068    0.3961   64.4735 C.ar    1  ZINC000572257265   -0.6300
     16 S16        -8.2183    0.0316   66.1531 S.o2    1  ZINC000572257265    2.7000
     17 O17        -8.9847    0.9282   66.9458 O.2     1  ZINC000572257265   -0.9400
     18 O18        -8.2936   -1.3812   66.2849 O.2     1  ZINC000572257265   -0.9400
     19 N19        -6.6307    0.4394   66.3886 N.am    1  ZINC000572257265   -1.1200
     20 C20        -6.1902    1.8207   66.1782 C.3     1  ZINC000572257265    0.2200
     21 C21        -4.9106    2.0388   66.8725 C.1     1  ZINC000572257265    0.1900
     22 N22        -3.9231    2.2071   67.4082 N.1     1  ZINC000572257265   -0.3900
     23 C23        -8.4146   -0.5622   63.4960 C.ar    1  ZINC000572257265   -0.0400
     24 C24        -8.7226   -0.2773   62.1788 C.ar    1  ZINC000572257265   -0.0400
     25 H25       -11.4887   -2.1721   55.9648 H       1  ZINC000572257265    0.0800
     26 H26       -10.6984   -3.7656   56.0328 H       1  ZINC000572257265    0.1000
     27 H27       -12.4495   -3.6276   56.3209 H       1  ZINC000572257265    0.0800
     28 H28       -12.5949   -0.9721   58.1403 H       1  ZINC000572257265    0.0900
     29 H29       -13.4938   -2.4218   58.6487 H       1  ZINC000572257265    0.0900
     30 H30       -13.9939   -2.7087   60.9202 H       1  ZINC000572257265    0.0800
     31 H31       -13.5585   -1.3795   62.0212 H       1  ZINC000572257265    0.0700
     32 H32       -14.4621   -1.0371   60.5263 H       1  ZINC000572257265    0.0800
     33 H33       -10.4929   -2.1997   60.4056 H       1  ZINC000572257265    0.3800
     34 H34       -12.6986    0.6185   59.8139 H       1  ZINC000572257265    0.0900
     35 H35       -11.8597    0.2925   61.3494 H       1  ZINC000572257265    0.0800
     36 H36       -10.4204   -0.3990   58.8854 H       1  ZINC000572257265    0.4300
     37 H37        -9.7971    2.8985   62.5502 H       1  ZINC000572257265    0.1500
     38 H38        -9.2546    2.3889   64.8973 H       1  ZINC000572257265    0.1500
     39 H39        -5.9924   -0.2363   66.6658 H       1  ZINC000572257265    0.4300
     40 H40        -6.0603    2.0021   65.1113 H       1  ZINC000572257265    0.1100
     41 H41        -6.9399    2.5055   66.5746 H       1  ZINC000572257265    0.1300
     42 H42        -8.0265   -1.5343   63.7617 H       1  ZINC000572257265    0.1600
     43 H43        -8.5725   -1.0261   61.4151 H       1  ZINC000572257265    0.1500
@<TRIPOS>BOND
     1     1     2    1
     2     1    25    1
     3     1    26    1
     4     1    27    1
     5     2     3    1
     6     3     4    1
     7     3    28    1
     8     3    29    1
     9     4     5    1
    10     4     6    1
    11     4     7    1
    12     5    30    1
    13     5    31    1
    14     5    32    1
    15     6    33    1
    16     7     8    1
    17     7    34    1
    18     7    35    1
    19     8     9   am
    20     8    36    1
    21     9    10    2
    22     9    11    2
    23     9    12    1
    24    12    24   ar
    25    12    13   ar
    26    13    14   ar
    27    13    37    1
    28    14    15   ar
    29    14    38    1
    30    15    16    1
    31    15    23   ar
    32    16    17    2
    33    16    18    2
    34    16    19   am
    35    19    20    1
    36    19    39    1
    37    20    21    1
    38    20    40    1
    39    20    41    1
    40    21    22    3
    41    23    24   ar
    42    23    42    1
    43    24    43    1
@<TRIPOS>SUBSTRUCTURE
     1 ZINC000572257265        1 TEMP              0 ****  ****    0 ROOT


##########                                Name:    ZINC000816269301
##########                DOCK_Rotatable_Bonds:                   7
##########                         Heavy_Atoms:                  25
##########                    Molecular_Weight:             358.784
##########                DOCK_Rotatable_Bonds:                   7
##########                       Formal_Charge:           0.0100002
##########                     HBond_Acceptors:                   8
##########                        HBond_Donors:                   1
##########                         Heavy_Atoms:                  25
##########                          Grid_Score:          -34.520462
##########                     Grid_vdw_energy:          -34.739109
##########                      Grid_es_energy:            0.218647
##########           Internal_energy_repulsive:            7.661620

@<TRIPOS>MOLECULE
ZINC000816269301
 40 42 1 0 0
SMALL
USER_CHARGES


@<TRIPOS>ATOM
      1 C1          0.7779    1.2191   41.4200 C.3     1  ZINC000816269301    0.1000
      2 N2          0.3736    0.6800   42.7208 N.pl3   1  ZINC000816269301   -0.4000
      3 N3         -0.7838   -0.0621   42.9964 N.2     1  ZINC000816269301    0.0000
      4 N4         -0.8109   -0.3682   44.2455 N.2     1  ZINC000816269301   -0.2000
      5 C5          0.2834    0.1276   44.8707 C.ar    1  ZINC000816269301   -0.0300
      6 C6          0.7289    0.0810   46.1944 C.ar    1  ZINC000816269301    0.0500
      7 C7          1.9241    0.7014   46.5378 C.ar    1  ZINC000816269301   -0.1400
      8 C8          2.4013    0.6561   47.9336 C.2     1  ZINC000816269301    0.5200
      9 O9          3.4507    1.1892   48.2344 O.2     1  ZINC000816269301   -0.5000
     10 O10         1.6732    0.0236   48.8744 O.3     1  ZINC000816269301   -0.3500
     11 C11         2.1679    0.0785   50.2383 C.3     1  ZINC000816269301    0.0500
     12 C12         1.7983    1.4264   50.8610 C.3     1  ZINC000816269301    0.1200
     13 N13         0.3604    1.6587   50.7046 N.am    1  ZINC000816269301   -0.7200
     14 C14        -0.2921    2.4552   51.5743 C.2     1  ZINC000816269301    0.5600
     15 O15         0.3130    2.9820   52.4876 O.2     1  ZINC000816269301   -0.5300
     16 C16        -1.7429    2.6881   51.4176 C.ar    1  ZINC000816269301   -0.1300
     17 C17        -2.4283    3.4843   52.3370 C.ar    1  ZINC000816269301   -0.0700
     18 C18        -3.7823    3.6980   52.1856 C.ar    1  ZINC000816269301   -0.1200
     19 C19        -4.4621    3.1245   51.1237 C.ar    1  ZINC000816269301   -0.0100
     20 Cl20       -6.1664    3.3984   50.9393 Cl      1  ZINC000816269301   -0.0600
     21 C21        -3.7875    2.3336   50.2083 C.ar    1  ZINC000816269301   -0.1200
     22 C22        -2.4326    2.1174   50.3461 C.ar    1  ZINC000816269301   -0.0500
     23 C23         2.6789    1.3702   45.5628 C.ar    1  ZINC000816269301   -0.0200
     24 C24         2.2496    1.4190   44.2703 C.ar    1  ZINC000816269301   -0.1300
     25 C25         1.0573    0.7983   43.9051 C.ar    1  ZINC000816269301    0.1100
     26 H26         1.3828    0.4813   40.8930 H       1  ZINC000816269301    0.0900
     27 H27        -0.1096    1.4493   40.8304 H       1  ZINC000816269301    0.1000
     28 H28         1.3611    2.1279   41.5686 H       1  ZINC000816269301    0.1000
     29 H29         0.1480   -0.4335   46.9457 H       1  ZINC000816269301    0.1600
     30 H30         1.7186   -0.7260   50.8205 H       1  ZINC000816269301    0.0800
     31 H31         3.2519   -0.0359   50.2365 H       1  ZINC000816269301    0.1000
     32 H32         2.0519    1.4186   51.9211 H       1  ZINC000816269301    0.1000
     33 H33         2.3514    2.2214   50.3610 H       1  ZINC000816269301    0.0900
     34 H34        -0.1222    1.2393   49.9751 H       1  ZINC000816269301    0.4000
     35 H35        -1.8994    3.9317   53.1656 H       1  ZINC000816269301    0.1400
     36 H36        -4.3136    4.3134   52.8964 H       1  ZINC000816269301    0.1400
     37 H37        -4.3229    1.8890   49.3824 H       1  ZINC000816269301    0.1400
     38 H38        -1.9076    1.5009   49.6315 H       1  ZINC000816269301    0.1500
     39 H39         3.6065    1.8500   45.8383 H       1  ZINC000816269301    0.1500
     40 H40         2.8375    1.9363   43.5265 H       1  ZINC000816269301    0.1400
@<TRIPOS>BOND
     1     1     2    1
     2     1    26    1
     3     1    27    1
     4     1    28    1
     5     2    25    1
     6     2     3    1
     7     3     4    2
     8     4     5    1
     9     5    25   ar
    10     5     6   ar
    11     6     7   ar
    12     6    29    1
    13     7     8    1
    14     7    23   ar
    15     8     9    2
    16     8    10    1
    17    10    11    1
    18    11    12    1
    19    11    30    1
    20    11    31    1
    21    12    13    1
    22    12    32    1
    23    12    33    1
    24    13    14   am
    25    13    34    1
    26    14    15    2
    27    14    16    1
    28    16    22   ar
    29    16    17   ar
    30    17    18   ar
    31    17    35    1
    32    18    19   ar
    33    18    36    1
    34    19    20    1
    35    19    21   ar
    36    21    22   ar
    37    21    37    1
    38    22    38    1
    39    23    24   ar
    40    23    39    1
    41    24    25   ar
    42    24    40    1
@<TRIPOS>SUBSTRUCTURE
     1 ZINC000816269301        1 TEMP              0 ****  ****    0 ROOT


##########                                Name:    ZINC000482187991
##########                DOCK_Rotatable_Bonds:                  11
##########                         Heavy_Atoms:                  29
##########                    Molecular_Weight:             407.414
##########                DOCK_Rotatable_Bonds:                  11
##########                       Formal_Charge:           0.0299996
##########                     HBond_Acceptors:                   8
##########                        HBond_Donors:                   1
##########                         Heavy_Atoms:                  29
##########                          Grid_Score:          -34.499630
##########                     Grid_vdw_energy:          -33.924706
##########                      Grid_es_energy:           -0.574923
##########           Internal_energy_repulsive:           11.006403

@<TRIPOS>MOLECULE
ZINC000482187991
 52 53 1 0 0
SMALL
USER_CHARGES


@<TRIPOS>ATOM
      1 C1        -11.5869   -3.2278   53.5051 C.3     1  ZINC000482187991    0.0200
      2 O2        -11.5062   -2.6468   52.2020 O.3     1  ZINC000482187991   -0.3000
      3 C3        -11.1806   -1.3281   52.1331 C.ar    1  ZINC000482187991    0.1400
      4 C4         -9.8896   -0.9210   52.4074 C.ar    1  ZINC000482187991   -0.1700
      5 C5         -9.5553    0.4366   52.3358 C.ar    1  ZINC000482187991   -0.1000
      6 C6         -8.1836    0.8734   52.6263 C.2     1  ZINC000482187991    0.4000
      7 O7         -7.9538    1.5297   53.6202 O.2     1  ZINC000482187991   -0.4500
      8 C8         -7.0616    0.5062   51.6897 C.3     1  ZINC000482187991   -0.1500
      9 C9         -6.9551    1.5583   50.5840 C.3     1  ZINC000482187991   -0.1300
     10 C10        -5.6713    2.3305   50.7473 C.2     1  ZINC000482187991    0.5200
     11 O11        -4.8786    2.3897   49.8313 O.2     1  ZINC000482187991   -0.5200
     12 N12        -5.4039    2.9551   51.9113 N.am    1  ZINC000482187991   -0.7200
     13 C13        -4.1550    3.7043   52.0706 C.3     1  ZINC000482187991    0.1500
     14 H14        -3.3867    3.2699   51.4309 H       1  ZINC000482187991    0.1300
     15 C15        -3.7087    3.6367   53.5084 C.ar    1  ZINC000482187991   -0.1100
     16 C16        -4.6451    3.5137   54.5178 C.ar    1  ZINC000482187991   -0.1000
     17 C17        -4.2358    3.4518   55.8366 C.ar    1  ZINC000482187991   -0.1200
     18 C18        -2.8899    3.5125   56.1461 C.ar    1  ZINC000482187991   -0.1100
     19 C19        -1.9533    3.6347   55.1367 C.ar    1  ZINC000482187991   -0.1200
     20 C20        -2.3625    3.6923   53.8175 C.ar    1  ZINC000482187991   -0.1000
     21 C21        -4.3824    5.1647   51.6751 C.3     1  ZINC000482187991    0.2500
     22 F22        -5.4402    5.6913   52.4241 F       1  ZINC000482187991   -0.1900
     23 F23        -3.2205    5.9022   51.9264 F       1  ZINC000482187991   -0.2000
     24 C24       -10.5320    1.3770   51.9860 C.ar    1  ZINC000482187991   -0.1900
     25 C25       -11.8209    0.9624   51.7131 C.ar    1  ZINC000482187991    0.1400
     26 O26       -12.7702    1.8750   51.3728 O.3     1  ZINC000482187991   -0.3000
     27 C27       -12.5967    2.5588   50.1301 C.3     1  ZINC000482187991    0.0200
     28 C28       -12.1484   -0.3901   51.7802 C.ar    1  ZINC000482187991    0.0600
     29 O29       -13.4170   -0.7941   51.5107 O.3     1  ZINC000482187991   -0.3100
     30 C30       -14.3791   -0.6527   52.5578 C.3     1  ZINC000482187991    0.0400
     31 H31       -11.8539   -4.2809   53.4174 H       1  ZINC000482187991    0.1100
     32 H32       -10.6216   -3.1380   54.0034 H       1  ZINC000482187991    0.0600
     33 H33       -12.3467   -2.7076   54.0884 H       1  ZINC000482187991    0.0600
     34 H34        -9.1390   -1.6492   52.6771 H       1  ZINC000482187991    0.1500
     35 H35        -6.1240    0.4656   52.2442 H       1  ZINC000482187991    0.1100
     36 H36        -7.2634   -0.4685   51.2455 H       1  ZINC000482187991    0.1100
     37 H37        -6.9615    1.0655   49.6117 H       1  ZINC000482187991    0.1000
     38 H38        -7.8012    2.2421   50.6504 H       1  ZINC000482187991    0.1000
     39 H39        -6.0385    2.9087   52.6435 H       1  ZINC000482187991    0.4100
     40 H40        -5.6967    3.4662   54.2759 H       1  ZINC000482187991    0.1200
     41 H41        -4.9674    3.3564   56.6253 H       1  ZINC000482187991    0.1300
     42 H42        -2.5700    3.4649   57.1766 H       1  ZINC000482187991    0.1300
     43 H43        -0.9018    3.6825   55.3785 H       1  ZINC000482187991    0.1300
     44 H44        -1.6308    3.7877   53.0289 H       1  ZINC000482187991    0.1300
     45 H45        -4.6255    5.2201   50.6140 H       1  ZINC000482187991    0.1200
     46 H46       -10.2778    2.4251   51.9301 H       1  ZINC000482187991    0.1500
     47 H47       -11.6550    3.1077   50.1457 H       1  ZINC000482187991    0.0600
     48 H48       -12.5816    1.8344   49.3157 H       1  ZINC000482187991    0.0600
     49 H49       -13.4211    3.2561   49.9810 H       1  ZINC000482187991    0.1100
     50 H50       -14.0633   -1.2363   53.4226 H       1  ZINC000482187991    0.0500
     51 H51       -14.4595    0.3976   52.8381 H       1  ZINC000482187991    0.0500
     52 H52       -15.3484   -1.0116   52.2116 H       1  ZINC000482187991    0.1000
@<TRIPOS>BOND
     1     1     2    1
     2     1    31    1
     3     1    32    1
     4     1    33    1
     5     2     3    1
     6     3    28   ar
     7     3     4   ar
     8     4     5   ar
     9     4    34    1
    10     5     6    1
    11     5    24   ar
    12     6     7    2
    13     6     8    1
    14     8     9    1
    15     8    35    1
    16     8    36    1
    17     9    10    1
    18     9    37    1
    19     9    38    1
    20    10    11    2
    21    10    12   am
    22    12    13    1
    23    12    39    1
    24    13    14    1
    25    13    15    1
    26    13    21    1
    27    15    20   ar
    28    15    16   ar
    29    16    17   ar
    30    16    40    1
    31    17    18   ar
    32    17    41    1
    33    18    19   ar
    34    18    42    1
    35    19    20   ar
    36    19    43    1
    37    20    44    1
    38    21    22    1
    39    21    23    1
    40    21    45    1
    41    24    25   ar
    42    24    46    1
    43    25    26    1
    44    25    28   ar
    45    26    27    1
    46    27    47    1
    47    27    48    1
    48    27    49    1
    49    28    29    1
    50    29    30    1
    51    30    50    1
    52    30    51    1
    53    30    52    1
@<TRIPOS>SUBSTRUCTURE
     1 ZINC000482187991        1 TEMP              0 ****  ****    0 ROOT


##########                                Name:    ZINC000498646479
##########                DOCK_Rotatable_Bonds:                   7
##########                         Heavy_Atoms:                  29
##########                    Molecular_Weight:              407.58
##########                DOCK_Rotatable_Bonds:                   7
##########                       Formal_Charge:          -0.0199997
##########                     HBond_Acceptors:                   5
##########                        HBond_Donors:                   0
##########                         Heavy_Atoms:                  29
##########                          Grid_Score:          -34.487289
##########                     Grid_vdw_energy:          -34.052189
##########                      Grid_es_energy:           -0.435100
##########           Internal_energy_repulsive:           31.562654

@<TRIPOS>MOLECULE
ZINC000498646479
 58 61 1 0 0
SMALL
USER_CHARGES


@<TRIPOS>ATOM
      1 C1         -9.0483   -0.2630   61.5015 C.3     1  ZINC000498646479   -0.1500
      2 C2         -8.8751   -1.2473   60.3430 C.3     1  ZINC000498646479   -0.0600
      3 C3         -9.9501   -1.0066   59.3145 C.2     1  ZINC000498646479   -0.1700
      4 C4        -10.5452   -1.9539   58.5882 C.2     1  ZINC000498646479   -0.1400
      5 C5        -11.5065   -1.4939   57.7048 C.2     1  ZINC000498646479   -0.1300
      6 C6        -11.6921   -0.1730   57.7138 C.2     1  ZINC000498646479   -0.1900
      7 C7        -12.6769    0.5718   56.8499 C.3     1  ZINC000498646479    0.1300
      8 N8        -12.1051    0.7652   55.5106 N.3     1  ZINC000498646479   -0.5300
      9 C9        -12.1899   -0.4692   54.7187 C.3     1  ZINC000498646479    0.0400
     10 C10       -11.7533   -0.1795   53.2787 C.3     1  ZINC000498646479    0.1200
     11 N11       -10.4236    0.4484   53.3112 N.am    1  ZINC000498646479   -0.6100
     12 C12        -9.4147   -0.0286   52.5555 C.2     1  ZINC000498646479    0.5200
     13 O13        -9.5970   -0.9879   51.8362 O.2     1  ZINC000498646479   -0.5400
     14 C14        -8.0602    0.6302   52.6041 C.3     1  ZINC000498646479   -0.1000
     15 H15        -7.7844    0.8177   53.6418 H       1  ZINC000498646479    0.0900
     16 C16        -7.0221   -0.2900   51.9587 C.3     1  ZINC000498646479   -0.1500
     17 C17        -8.1103    1.9561   51.8422 C.3     1  ZINC000498646479   -0.0600
     18 C18        -6.7255    2.3160   51.3690 C.ar    1  ZINC000498646479   -0.1200
     19 C19        -5.7614    2.7983   52.2725 C.ar    1  ZINC000498646479   -0.0200
     20 C20        -6.0337    2.9661   53.6379 C.ar    1  ZINC000498646479   -0.1200
     21 C21        -5.0578    3.4372   54.4631 C.ar    1  ZINC000498646479   -0.1000
     22 C22        -3.7930    3.7555   53.9715 C.ar    1  ZINC000498646479   -0.1200
     23 C23        -3.4933    3.6051   52.6516 C.ar    1  ZINC000498646479   -0.0900
     24 C24        -4.4736    3.1216   51.7706 C.ar    1  ZINC000498646479   -0.1100
     25 C25        -4.2230    2.9453   50.4005 C.ar    1  ZINC000498646479    0.1400
     26 N26        -5.1713    2.4897   49.6156 N.ar    1  ZINC000498646479   -0.4800
     27 C27        -6.3806    2.1754   50.0589 C.ar    1  ZINC000498646479    0.0800
     28 C28       -10.2242    1.6109   54.1900 C.3     1  ZINC000498646479    0.1100
     29 C29       -10.7212    1.2506   55.5940 C.3     1  ZINC000498646479    0.0400
     30 S30       -10.6172    0.5655   58.8940 S.3     1  ZINC000498646479    0.1300
     31 H31        -8.2708   -0.4370   62.2454 H       1  ZINC000498646479    0.0600
     32 H32        -8.9701    0.7574   61.1261 H       1  ZINC000498646479    0.0600
     33 H33       -10.0272   -0.4081   61.9584 H       1  ZINC000498646479    0.0600
     34 H34        -7.8962   -1.1021   59.8862 H       1  ZINC000498646479    0.0800
     35 H35        -8.9533   -2.2676   60.7183 H       1  ZINC000498646479    0.0700
     36 H36       -10.2957   -3.0005   58.6819 H       1  ZINC000498646479    0.1400
     37 H37       -12.0638   -2.1544   57.0570 H       1  ZINC000498646479    0.1300
     38 H38       -13.5993   -0.0036   56.7715 H       1  ZINC000498646479    0.0900
     39 H39       -12.8911    1.5425   57.2971 H       1  ZINC000498646479    0.0500
     40 H40       -11.5353   -1.2252   55.1522 H       1  ZINC000498646479    0.0400
     41 H41       -13.2176   -0.8328   54.7209 H       1  ZINC000498646479    0.1000
     42 H42       -11.7043   -1.1118   52.7163 H       1  ZINC000498646479    0.1000
     43 H43       -12.4666    0.4978   52.8090 H       1  ZINC000498646479    0.0800
     44 H44        -6.0300    0.1481   52.0685 H       1  ZINC000498646479    0.0700
     45 H45        -7.0455   -1.2637   52.4481 H       1  ZINC000498646479    0.0600
     46 H46        -7.2511   -0.4099   50.8999 H       1  ZINC000498646479    0.0700
     47 H47        -8.7735    1.8566   50.9829 H       1  ZINC000498646479    0.0900
     48 H48        -8.4842    2.7398   52.5010 H       1  ZINC000498646479    0.0800
     49 H49        -7.0097    2.7240   54.0320 H       1  ZINC000498646479    0.1400
     50 H50        -5.2673    3.5664   55.5147 H       1  ZINC000498646479    0.1300
     51 H51        -3.0383    4.1278   54.6483 H       1  ZINC000498646479    0.1300
     52 H52        -2.5089    3.8559   52.2854 H       1  ZINC000498646479    0.1300
     53 H53        -3.2517    3.1844   49.9931 H       1  ZINC000498646479    0.1600
     54 H54        -7.1158    1.8052   49.3596 H       1  ZINC000498646479    0.1500
     55 H55        -9.1643    1.8621   54.2299 H       1  ZINC000498646479    0.0900
     56 H56       -10.7905    2.4602   53.8078 H       1  ZINC000498646479    0.0800
     57 H57       -10.6835    2.1343   56.2310 H       1  ZINC000498646479    0.0900
     58 H58       -10.0869    0.4707   56.0153 H       1  ZINC000498646479    0.0400
@<TRIPOS>BOND
     1     1     2    1
     2     1    31    1
     3     1    32    1
     4     1    33    1
     5     2     3    1
     6     2    34    1
     7     2    35    1
     8     3    30    1
     9     3     4    2
    10     4     5    1
    11     4    36    1
    12     5     6    2
    13     5    37    1
    14     6     7    1
    15     6    30    1
    16     7     8    1
    17     7    38    1
    18     7    39    1
    19     8    29    1
    20     8     9    1
    21     9    10    1
    22     9    40    1
    23     9    41    1
    24    10    11    1
    25    10    42    1
    26    10    43    1
    27    11    12   am
    28    11    28    1
    29    12    13    2
    30    12    14    1
    31    14    15    1
    32    14    16    1
    33    14    17    1
    34    16    44    1
    35    16    45    1
    36    16    46    1
    37    17    18    1
    38    17    47    1
    39    17    48    1
    40    18    27   ar
    41    18    19   ar
    42    19    24   ar
    43    19    20   ar
    44    20    21   ar
    45    20    49    1
    46    21    22   ar
    47    21    50    1
    48    22    23   ar
    49    22    51    1
    50    23    24   ar
    51    23    52    1
    52    24    25   ar
    53    25    26   ar
    54    25    53    1
    55    26    27   ar
    56    27    54    1
    57    28    29    1
    58    28    55    1
    59    28    56    1
    60    29    57    1
    61    29    58    1
@<TRIPOS>SUBSTRUCTURE
     1 ZINC000498646479        1 TEMP              0 ****  ****    0 ROOT


##########                                Name:    ZINC000058043838
##########                DOCK_Rotatable_Bonds:                   8
##########                         Heavy_Atoms:                  29
##########                    Molecular_Weight:             412.469
##########                DOCK_Rotatable_Bonds:                   8
##########                       Formal_Charge:           0.0200001
##########                     HBond_Acceptors:                   9
##########                        HBond_Donors:                   0
##########                         Heavy_Atoms:                  29
##########                          Grid_Score:          -34.420490
##########                     Grid_vdw_energy:          -33.505653
##########                      Grid_es_energy:           -0.914837
##########           Internal_energy_repulsive:           14.945574

@<TRIPOS>MOLECULE
ZINC000058043838
 49 51 1 0 0
SMALL
USER_CHARGES


@<TRIPOS>ATOM
      1 C1         -2.2411    6.4669   52.6453 C.3     1  ZINC000058043838    0.0300
      2 O2         -3.3662    5.6206   52.4002 O.3     1  ZINC000058043838   -0.3800
      3 C3         -3.5788    4.6299   53.4079 C.3     1  ZINC000058043838    0.0300
      4 C4         -2.5187    3.5345   53.2779 C.3     1  ZINC000058043838    0.1000
      5 N5         -2.6239    2.9072   51.9582 N.am    1  ZINC000058043838   -0.5200
      6 C6         -1.5082    2.5926   51.2708 C.2     1  ZINC000058043838    0.5100
      7 O7         -1.5952    2.0718   50.1789 O.2     1  ZINC000058043838   -0.4500
      8 C8         -0.1523    2.8877   51.8589 C.3     1  ZINC000058043838   -0.0900
      9 C9          0.9195    2.4550   50.8920 C.ar    1  ZINC000058043838   -0.1400
     10 C10         1.3900    1.1510   50.9032 C.ar    1  ZINC000058043838   -0.0500
     11 C11         2.3767    0.7976   49.9951 C.ar    1  ZINC000058043838   -0.1700
     12 C12         2.8547    1.7500   49.1154 C.ar    1  ZINC000058043838    0.1300
     13 C13         3.9265    1.3769   48.1239 C.3     1  ZINC000058043838   -0.1100
     14 N14         2.3835    2.9817   49.1332 N.ar    1  ZINC000058043838   -0.4800
     15 C15         1.4421    3.3518   49.9790 C.ar    1  ZINC000058043838    0.1200
     16 C16        -3.8740    2.6365   51.4153 C.2     1  ZINC000058043838    0.3100
     17 N17        -4.8416    2.0290   52.0283 N.2     1  ZINC000058043838   -0.4700
     18 C18        -5.9690    1.8577   51.3521 C.2     1  ZINC000058043838    0.1100
     19 C19        -7.1500    1.1790   51.9390 C.ar    1  ZINC000058043838    0.0400
     20 C20        -7.5792   -0.0447   51.4280 C.ar    1  ZINC000058043838   -0.0800
     21 C21        -8.6785   -0.6718   51.9784 C.ar    1  ZINC000058043838   -0.0500
     22 C22        -9.3539   -0.0883   53.0352 C.ar    1  ZINC000058043838   -0.0400
     23 N23       -10.5324   -0.7659   53.6213 N.pl3   1  ZINC000058043838    0.0300
     24 O24       -10.9056   -1.8351   53.1731 O.2     1  ZINC000058043838   -0.1600
     25 O25       -11.1288   -0.2541   54.5519 O.2     1  ZINC000058043838   -0.1600
     26 C26        -8.9321    1.1258   53.5467 C.ar    1  ZINC000058043838   -0.0500
     27 C27        -7.8313    1.7598   53.0074 C.ar    1  ZINC000058043838   -0.1100
     28 C28        -5.9679    2.3420   50.0972 C.2     1  ZINC000058043838   -0.2600
     29 S29        -4.3936    3.0717   49.7898 S.3     1  ZINC000058043838    0.1500
     30 H30        -2.3813    6.9934   53.5894 H       1  ZINC000058043838    0.0500
     31 H31        -1.3359    5.8619   52.6977 H       1  ZINC000058043838    0.0400
     32 H32        -2.1478    7.1910   51.8359 H       1  ZINC000058043838    0.0900
     33 H33        -3.5055    5.0916   54.3924 H       1  ZINC000058043838    0.0600
     34 H34        -4.5698    4.1930   53.2843 H       1  ZINC000058043838    0.0800
     35 H35        -1.5274    3.9727   53.3938 H       1  ZINC000058043838    0.1200
     36 H36        -2.6764    2.7827   54.0512 H       1  ZINC000058043838    0.1000
     37 H37        -0.0626    3.9578   52.0457 H       1  ZINC000058043838    0.1100
     38 H38        -0.0369    2.3441   52.7965 H       1  ZINC000058043838    0.1100
     39 H39         0.9977    0.4278   51.6027 H       1  ZINC000058043838    0.1300
     40 H40         2.7668   -0.2094   49.9758 H       1  ZINC000058043838    0.1400
     41 H41         3.4625    1.0208   47.2041 H       1  ZINC000058043838    0.0800
     42 H42         4.5404    2.2509   47.9064 H       1  ZINC000058043838    0.0800
     43 H43         4.5518    0.5891   48.5441 H       1  ZINC000058043838    0.0800
     44 H44         1.0810    4.3696   49.9640 H       1  ZINC000058043838    0.1500
     45 H45        -7.0529   -0.5010   50.6028 H       1  ZINC000058043838    0.1600
     46 H46        -9.0122   -1.6198   51.5831 H       1  ZINC000058043838    0.1600
     47 H47        -9.4633    1.5769   54.3718 H       1  ZINC000058043838    0.1600
     48 H48        -7.5026    2.7074   53.4077 H       1  ZINC000058043838    0.1500
     49 H49        -6.7911    2.2950   49.3998 H       1  ZINC000058043838    0.1800
@<TRIPOS>BOND
     1     1     2    1
     2     1    30    1
     3     1    31    1
     4     1    32    1
     5     2     3    1
     6     3     4    1
     7     3    33    1
     8     3    34    1
     9     4     5    1
    10     4    35    1
    11     4    36    1
    12     5     6   am
    13     5    16    1
    14     6     7    2
    15     6     8    1
    16     8     9    1
    17     8    37    1
    18     8    38    1
    19     9    15   ar
    20     9    10   ar
    21    10    11   ar
    22    10    39    1
    23    11    12   ar
    24    11    40    1
    25    12    13    1
    26    12    14   ar
    27    13    41    1
    28    13    42    1
    29    13    43    1
    30    14    15   ar
    31    15    44    1
    32    16    29    1
    33    16    17    2
    34    17    18    1
    35    18    19    1
    36    18    28    2
    37    19    27   ar
    38    19    20   ar
    39    20    21   ar
    40    20    45    1
    41    21    22   ar
    42    21    46    1
    43    22    23    1
    44    22    26   ar
    45    23    24    2
    46    23    25    2
    47    26    27   ar
    48    26    47    1
    49    27    48    1
    50    28    29    1
    51    28    49    1
@<TRIPOS>SUBSTRUCTURE
     1 ZINC000058043838        1 TEMP              0 ****  ****    0 ROOT


##########                                Name:    ZINC000541000201
##########                DOCK_Rotatable_Bonds:                  10
##########                         Heavy_Atoms:                  30
##########                    Molecular_Weight:             420.413
##########                DOCK_Rotatable_Bonds:                  10
##########                       Formal_Charge:               -0.03
##########                     HBond_Acceptors:                   9
##########                        HBond_Donors:                   1
##########                         Heavy_Atoms:                  30
##########                          Grid_Score:          -34.393852
##########                     Grid_vdw_energy:          -33.059959
##########                      Grid_es_energy:           -1.333892
##########           Internal_energy_repulsive:           12.675458

@<TRIPOS>MOLECULE
ZINC000541000201
 52 54 1 0 0
SMALL
USER_CHARGES


@<TRIPOS>ATOM
      1 C1        -10.7114   -3.7937   57.9579 C.3     1  ZINC000541000201    0.0400
      2 O2        -10.7204   -2.3598   58.1871 O.3     1  ZINC000541000201   -0.3500
      3 C3        -10.7999   -1.9470   59.4619 C.2     1  ZINC000541000201    0.4500
      4 O4        -10.9452   -2.7531   60.3501 O.2     1  ZINC000541000201   -0.4900
      5 C5        -10.7078   -0.4780   59.7852 C.3     1  ZINC000541000201    0.2100
      6 H6        -11.6914   -0.0204   59.6797 H       1  ZINC000541000201    0.1400
      7 N7         -9.7680    0.1667   58.8646 N.am    1  ZINC000541000201   -0.7100
      8 C8        -10.1792    0.5469   57.6387 C.2     1  ZINC000541000201    0.5800
      9 O9        -11.3304    0.3564   57.2974 O.2     1  ZINC000541000201   -0.5300
     10 C10        -9.2318    1.1948   56.7105 C.ar    1  ZINC000541000201   -0.2300
     11 C11        -7.9258    1.4973   57.1226 C.ar    1  ZINC000541000201    0.0200
     12 C12        -7.0771    2.1031   56.2188 C.ar    1  ZINC000541000201   -0.2000
     13 C13        -7.5401    2.3918   54.9390 C.ar    1  ZINC000541000201    0.3500
     14 O14        -6.7111    2.9865   54.0473 O.3     1  ZINC000541000201   -0.2900
     15 C15        -7.2440    3.2629   52.7504 C.3     1  ZINC000541000201    0.0800
     16 C16        -6.2470    4.1132   51.9247 C.3     1  ZINC000541000201   -0.1400
     17 C17        -6.6596    3.8015   50.4646 C.3     1  ZINC000541000201   -0.1200
     18 C18        -7.0207    2.3019   50.4854 C.3     1  ZINC000541000201   -0.1200
     19 C19        -7.3923    1.9594   51.9388 C.3     1  ZINC000541000201   -0.1200
     20 N20        -8.7793    2.0933   54.5796 N.ar    1  ZINC000541000201   -0.5400
     21 C21        -9.6204    1.5104   55.4077 C.ar    1  ZINC000541000201    0.1800
     22 C22       -10.2225   -0.3047   61.2014 C.ar    1  ZINC000541000201   -0.1300
     23 C23       -11.0592    0.2449   62.1552 C.ar    1  ZINC000541000201   -0.0700
     24 C24       -10.6167    0.4048   63.4541 C.ar    1  ZINC000541000201   -0.1300
     25 C25        -9.3318    0.0130   63.8011 C.ar    1  ZINC000541000201    0.1200
     26 O26        -8.8945    0.1690   65.0783 O.3     1  ZINC000541000201   -0.3200
     27 C27        -7.9566    1.2199   65.3190 C.3     1  ZINC000541000201    0.4100
     28 F28        -8.6437    2.4234   65.5106 F       1  ZINC000541000201   -0.2000
     29 F29        -7.2074    0.9235   66.4628 F       1  ZINC000541000201   -0.2000
     30 C30        -8.4946   -0.5385   62.8423 C.ar    1  ZINC000541000201   -0.1900
     31 C31        -8.9435   -0.7007   61.5459 C.ar    1  ZINC000541000201   -0.0500
     32 H32       -10.6442   -3.9902   56.8879 H       1  ZINC000541000201    0.1000
     33 H33        -9.8534   -4.2370   58.4634 H       1  ZINC000541000201    0.0600
     34 H34       -11.6298   -4.2302   58.3505 H       1  ZINC000541000201    0.0600
     35 H35        -8.8498    0.3198   59.1374 H       1  ZINC000541000201    0.4100
     36 H36        -7.5927    1.2623   58.1227 H       1  ZINC000541000201    0.1600
     37 H37        -6.0646    2.3507   56.5019 H       1  ZINC000541000201    0.1500
     38 H38        -8.2043    3.7716   52.8340 H       1  ZINC000541000201    0.1000
     39 H39        -6.3707    5.1739   52.1429 H       1  ZINC000541000201    0.0700
     40 H40        -5.2211    3.7961   52.1122 H       1  ZINC000541000201    0.0800
     41 H41        -7.5251    4.3984   50.1770 H       1  ZINC000541000201    0.0700
     42 H42        -5.8266    3.9839   49.7856 H       1  ZINC000541000201    0.0700
     43 H43        -7.8699    2.1132   49.8285 H       1  ZINC000541000201    0.0700
     44 H44        -6.1639    1.7070   50.1690 H       1  ZINC000541000201    0.0700
     45 H45        -6.7159    1.1983   52.3277 H       1  ZINC000541000201    0.0800
     46 H46        -8.4218    1.6045   51.9873 H       1  ZINC000541000201    0.0700
     47 H47       -10.6233    1.2820   55.0786 H       1  ZINC000541000201    0.1600
     48 H48       -12.0593    0.5496   61.8846 H       1  ZINC000541000201    0.1300
     49 H49       -11.2703    0.8348   64.1985 H       1  ZINC000541000201    0.1400
     50 H50        -7.2895    1.3150   64.4622 H       1  ZINC000541000201    0.1900
     51 H51        -7.4938   -0.8439   63.1100 H       1  ZINC000541000201    0.1400
     52 H52        -8.2921   -1.1304   60.7993 H       1  ZINC000541000201    0.1400
@<TRIPOS>BOND
     1     1     2    1
     2     1    32    1
     3     1    33    1
     4     1    34    1
     5     2     3    1
     6     3     4    2
     7     3     5    1
     8     5     6    1
     9     5     7    1
    10     5    22    1
    11     7     8   am
    12     7    35    1
    13     8     9    2
    14     8    10    1
    15    10    21   ar
    16    10    11   ar
    17    11    12   ar
    18    11    36    1
    19    12    13   ar
    20    12    37    1
    21    13    14    1
    22    13    20   ar
    23    14    15    1
    24    15    19    1
    25    15    16    1
    26    15    38    1
    27    16    17    1
    28    16    39    1
    29    16    40    1
    30    17    18    1
    31    17    41    1
    32    17    42    1
    33    18    19    1
    34    18    43    1
    35    18    44    1
    36    19    45    1
    37    19    46    1
    38    20    21   ar
    39    21    47    1
    40    22    31   ar
    41    22    23   ar
    42    23    24   ar
    43    23    48    1
    44    24    25   ar
    45    24    49    1
    46    25    26    1
    47    25    30   ar
    48    26    27    1
    49    27    28    1
    50    27    29    1
    51    27    50    1
    52    30    31   ar
    53    30    51    1
    54    31    52    1
@<TRIPOS>SUBSTRUCTURE
     1 ZINC000541000201        1 TEMP              0 ****  ****    0 ROOT


##########                                Name:    ZINC000460972051
##########                DOCK_Rotatable_Bonds:                  10
##########                         Heavy_Atoms:                  29
##########                    Molecular_Weight:             417.572
##########                DOCK_Rotatable_Bonds:                  10
##########                       Formal_Charge:         3.31551e-07
##########                     HBond_Acceptors:                   7
##########                        HBond_Donors:                   2
##########                         Heavy_Atoms:                  29
##########                          Grid_Score:          -34.350872
##########                     Grid_vdw_energy:          -35.246284
##########                      Grid_es_energy:            0.895411
##########           Internal_energy_repulsive:           32.753094

@<TRIPOS>MOLECULE
ZINC000460972051
 60 61 1 0 0
SMALL
USER_CHARGES


@<TRIPOS>ATOM
      1 C1         -7.2463    1.0839   66.1049 C.3     1  ZINC000460972051   -0.1800
      2 C2         -8.5259    0.2509   66.0055 C.3     1  ZINC000460972051    0.1000
      3 N3         -9.3023    0.6856   64.8417 N.am    1  ZINC000460972051   -0.6200
      4 C4         -9.0998    0.1061   63.6419 C.2     1  ZINC000460972051    0.7100
      5 O5         -8.2737   -0.7786   63.5257 O.2     1  ZINC000460972051   -0.5800
      6 N6         -9.8129    0.5071   62.5709 N.am    1  ZINC000460972051   -0.7400
      7 C7         -9.5941   -0.1240   61.2670 C.3     1  ZINC000460972051    0.2000
      8 H8         -8.8061   -0.8722   61.3533 H       1  ZINC000460972051    0.1100
      9 C9        -10.8874   -0.7966   60.8024 C.3     1  ZINC000460972051    0.1100
     10 N10       -10.5737   -2.0951   60.2010 N.am    1  ZINC000460972051   -1.1200
     11 S11       -11.2811   -2.5377   58.7707 S.o2    1  ZINC000460972051    2.7000
     12 O12       -11.0221   -1.4848   57.8523 O.2     1  ZINC000460972051   -0.9500
     13 O13       -10.8997   -3.8861   58.5347 O.2     1  ZINC000460972051   -0.9600
     14 C14       -13.0234   -2.5521   59.0329 C.ar    1  ZINC000460972051   -0.6900
     15 C15       -13.5290   -2.5220   60.3188 C.ar    1  ZINC000460972051   -0.0100
     16 C16       -14.8961   -2.5333   60.5245 C.ar    1  ZINC000460972051   -0.1500
     17 C17       -15.7572   -2.5742   59.4442 C.ar    1  ZINC000460972051   -0.0200
     18 C18       -17.2474   -2.5870   59.6684 C.3     1  ZINC000460972051   -0.1300
     19 C19       -15.2515   -2.6029   58.1577 C.ar    1  ZINC000460972051   -0.1500
     20 C20       -13.8848   -2.5878   57.9520 C.ar    1  ZINC000460972051    0.0300
     21 C21       -13.3335   -2.6191   56.5498 C.3     1  ZINC000460972051   -0.1700
     22 C22        -9.1844    0.9236   60.2642 C.ar    1  ZINC000460972051   -0.1000
     23 C23        -8.4045    0.5730   59.1780 C.ar    1  ZINC000460972051   -0.1000
     24 C24        -8.0286    1.5340   58.2581 C.ar    1  ZINC000460972051   -0.1200
     25 C25        -8.4331    2.8454   58.4240 C.ar    1  ZINC000460972051   -0.1200
     26 C26        -9.2137    3.1958   59.5097 C.ar    1  ZINC000460972051   -0.1200
     27 C27        -9.5931    2.2340   60.4274 C.ar    1  ZINC000460972051   -0.1000
     28 C28       -10.2987    1.7503   64.9821 C.3     1  ZINC000460972051    0.1500
     29 C29       -10.7162    1.8679   66.4494 C.3     1  ZINC000460972051   -0.1600
     30 C30        -9.6968    3.0772   64.5152 C.3     1  ZINC000460972051   -0.1600
     31 H31        -6.6686    0.7604   66.9708 H       1  ZINC000460972051    0.0700
     32 H32        -6.6530    0.9475   65.2008 H       1  ZINC000460972051    0.0600
     33 H33        -7.5058    2.1368   66.2140 H       1  ZINC000460972051    0.0700
     34 H34        -8.2664   -0.8022   65.8965 H       1  ZINC000460972051    0.0700
     35 H35        -9.1193    0.3872   66.9097 H       1  ZINC000460972051    0.0900
     36 H36       -10.4710    1.2137   62.6634 H       1  ZINC000460972051    0.4000
     37 H37       -11.5484   -0.9421   61.6569 H       1  ZINC000460972051    0.0900
     38 H38       -11.3810   -0.1642   60.0646 H       1  ZINC000460972051    0.0900
     39 H39        -9.9515   -2.6956   60.6407 H       1  ZINC000460972051    0.4200
     40 H40       -12.8562   -2.4901   61.1630 H       1  ZINC000460972051    0.1400
     41 H41       -15.2913   -2.5105   61.5293 H       1  ZINC000460972051    0.1300
     42 H42       -17.6198   -1.5629   59.6939 H       1  ZINC000460972051    0.0800
     43 H43       -17.7322   -3.1298   58.8569 H       1  ZINC000460972051    0.0700
     44 H44       -17.4680   -3.0776   60.6163 H       1  ZINC000460972051    0.0700
     45 H45       -15.9242   -2.6345   57.3136 H       1  ZINC000460972051    0.1300
     46 H46       -13.1146   -1.6027   56.2227 H       1  ZINC000460972051    0.0900
     47 H47       -12.4186   -3.2114   56.5322 H       1  ZINC000460972051    0.1000
     48 H48       -14.0685   -3.0659   55.8803 H       1  ZINC000460972051    0.0900
     49 H49        -8.0885   -0.4515   59.0483 H       1  ZINC000460972051    0.1200
     50 H50        -7.4187    1.2602   57.4099 H       1  ZINC000460972051    0.1200
     51 H51        -8.1388    3.5963   57.7057 H       1  ZINC000460972051    0.1200
     52 H52        -9.5294    4.2204   59.6397 H       1  ZINC000460972051    0.1200
     53 H53       -10.2030    2.5078   61.2756 H       1  ZINC000460972051    0.1200
     54 H54       -11.1717    1.5134   64.3739 H       1  ZINC000460972051    0.1000
     55 H55       -11.1450    0.9227   66.7821 H       1  ZINC000460972051    0.0600
     56 H56        -9.8432    2.1048   67.0576 H       1  ZINC000460972051    0.0600
     57 H57       -11.4575    2.6601   66.5539 H       1  ZINC000460972051    0.0700
     58 H58        -9.3994    2.9934   63.4700 H       1  ZINC000460972051    0.0600
     59 H59       -10.4382    3.8693   64.6197 H       1  ZINC000460972051    0.0700
     60 H60        -8.8239    3.3141   65.1235 H       1  ZINC000460972051    0.0600
@<TRIPOS>BOND
     1     1     2    1
     2     1    31    1
     3     1    32    1
     4     1    33    1
     5     2     3    1
     6     2    34    1
     7     2    35    1
     8     3     4   am
     9     3    28    1
    10     4     5    2
    11     4     6   am
    12     6     7    1
    13     6    36    1
    14     7     8    1
    15     7     9    1
    16     7    22    1
    17     9    10    1
    18     9    37    1
    19     9    38    1
    20    10    11   am
    21    10    39    1
    22    11    12    2
    23    11    13    2
    24    11    14    1
    25    14    20   ar
    26    14    15   ar
    27    15    16   ar
    28    15    40    1
    29    16    17   ar
    30    16    41    1
    31    17    18    1
    32    17    19   ar
    33    18    42    1
    34    18    43    1
    35    18    44    1
    36    19    20   ar
    37    19    45    1
    38    20    21    1
    39    21    46    1
    40    21    47    1
    41    21    48    1
    42    22    27   ar
    43    22    23   ar
    44    23    24   ar
    45    23    49    1
    46    24    25   ar
    47    24    50    1
    48    25    26   ar
    49    25    51    1
    50    26    27   ar
    51    26    52    1
    52    27    53    1
    53    28    29    1
    54    28    30    1
    55    28    54    1
    56    29    55    1
    57    29    56    1
    58    29    57    1
    59    30    58    1
    60    30    59    1
    61    30    60    1
@<TRIPOS>SUBSTRUCTURE
     1 ZINC000460972051        1 TEMP              0 ****  ****    0 ROOT


##########                                Name:     oleObject52.pdb
##########                DOCK_Rotatable_Bonds:                  10
##########                         Heavy_Atoms:                  38
##########                    Molecular_Weight:              533.07
##########                DOCK_Rotatable_Bonds:                  10
##########                       Formal_Charge:         0.000300027
##########                     HBond_Acceptors:                   8
##########                        HBond_Donors:                   0
##########                         Heavy_Atoms:                  38
##########                          Grid_Score:          -34.267780
##########                     Grid_vdw_energy:          -34.767384
##########                      Grid_es_energy:            0.499604
##########           Internal_energy_repulsive:           28.804066

@<TRIPOS>MOLECULE
oleObject52.pdb
 71 74 1 0 0
SMALL
NO_CHARGES


@<TRIPOS>ATOM
      1 C          -1.7068    2.8524   56.9751 C.ar    1  UNL        -0.0596
      2 C          -0.6399    3.6347   56.5082 C.ar    1  UNL        -0.0314
      3 C          -0.6575    4.1559   55.1969 C.ar    1  UNL         0.0800
      4 C          -1.7580    3.8914   54.3487 C.ar    1  UNL         0.0089
      5 C          -2.8210    3.0978   54.8309 C.ar    1  UNL        -0.0541
      6 C          -2.7964    2.5830   56.1358 C.ar    1  UNL        -0.0617
      7 C          -1.7676    4.4581   52.9208 C.3     1  UNL         0.0953
      8 C          -0.7310    3.7758   52.0109 C.ar    1  UNL         0.0684
      9 C           0.0753    4.5147   51.1090 C.ar    1  UNL        -0.0272
     10 C           1.0090    3.8178   50.3193 C.ar    1  UNL        -0.0559
     11 C           1.1118    2.4255   50.4507 C.ar    1  UNL        -0.0435
     12 C           0.2775    1.7741   51.3711 C.ar    1  UNL         0.0272
     13 N          -0.6185    2.4314   52.1307 N.ar    1  UNL        -0.2587
     14 C          -0.0256    6.0298   50.9806 C.3     1  UNL        -0.0379
     15 N          -3.1266    4.5821   52.3204 N.am    1  UNL        -0.2917
     16 C          -3.7289    3.4792   51.7055 C.2     1  UNL         0.2180
     17 O          -3.2807    2.3576   51.8762 O.2     1  UNL        -0.2772
     18 C          -5.1427    3.6837   51.1036 C.3     1  UNL         0.0385
     19 C          -6.2121    3.9170   52.1981 C.3     1  UNL        -0.0289
     20 C          -6.5598    2.6179   52.9565 C.3     1  UNL        -0.0010
     21 N          -7.0153    1.5537   52.0320 N.4     1  UNL        -0.3010
     22 C          -6.0286    1.2525   50.9716 C.3     1  UNL        -0.0010
     23 C          -5.5902    2.5138   50.1874 C.3     1  UNL        -0.0289
     24 C          -7.4761    0.3189   52.7050 C.3     1  UNL         0.0222
     25 C          -8.8042   -0.2286   52.1427 C.3     1  UNL         0.0661
     26 O          -9.7433    0.8604   52.0964 O.3     1  UNL        -0.3432
     27 C         -11.1109    0.6959   52.2010 C.ar    1  UNL         0.0937
     28 C         -11.7293   -0.5599   52.0253 C.ar    1  UNL        -0.0289
     29 C         -13.1240   -0.6837   52.1404 C.ar    1  UNL        -0.0417
     30 C         -13.9132    0.4423   52.4315 C.ar    1  UNL         0.0537
     31 C         -13.3012    1.6949   52.6076 C.ar    1  UNL        -0.0230
     32 C         -11.9068    1.8217   52.4932 C.ar    1  UNL         0.0721
     33 CL        -11.1803    3.4017   52.7195 Cl      1  UNL        -0.0814
     34 C         -15.3373    0.3134   52.5485 C.1     1  UNL         0.0992
     35 N         -16.4845    0.1993   52.6393 N.1     1  UNL        -0.1924
     36 C          -3.7671    5.9142   52.3766 C.3     1  UNL         0.0037
     37 O           0.3873    4.9230   54.7103 O.3     1  UNL        -0.3490
     38 C           1.5597    5.2524   55.4741 C.3     1  UNL         0.0422
     39 H          -1.6873    2.4539   57.9853 H       1  UNL         0.0624
     40 H           0.1942    3.8275   57.1744 H       1  UNL         0.0651
     41 H          -3.6733    2.8729   54.1990 H       1  UNL         0.0627
     42 H          -3.6218    1.9752   56.4950 H       1  UNL         0.0623
     43 H          -1.4175    5.4897   53.0380 H       1  UNL         0.0627
     44 H           1.6490    4.3464   49.6186 H       1  UNL         0.0627
     45 H           1.8255    1.8632   49.8560 H       1  UNL         0.0639
     46 H           0.3290    0.6946   51.5071 H       1  UNL         0.0840
     47 H          -1.0618    6.3454   50.8199 H       1  UNL         0.0280
     48 H           0.5653    6.4057   50.1363 H       1  UNL         0.0280
     49 H           0.3427    6.5245   51.8882 H       1  UNL         0.0280
     50 H          -5.1092    4.5733   50.4659 H       1  UNL         0.0402
     51 H          -7.1258    4.3025   51.7274 H       1  UNL         0.0288
     52 H          -5.8814    4.6857   52.9061 H       1  UNL         0.0288
     53 H          -7.3413    2.8554   53.6875 H       1  UNL         0.0431
     54 H          -5.6763    2.2735   53.5102 H       1  UNL         0.0431
     55 H          -6.4566    0.5343   50.2605 H       1  UNL         0.0431
     56 H          -5.1465    0.7771   51.4186 H       1  UNL         0.0431
     57 H          -6.4398    2.8511   49.5798 H       1  UNL         0.0288
     58 H          -4.7880    2.2562   49.4841 H       1  UNL         0.0288
     59 H          -7.5904    0.5005   53.7817 H       1  UNL         0.0455
     60 H          -6.7155   -0.4632   52.5819 H       1  UNL         0.0455
     61 H          -9.1774   -1.0248   52.7994 H       1  UNL         0.0586
     62 H          -8.6513   -0.6336   51.1351 H       1  UNL         0.0586
     63 H         -11.1425   -1.4446   51.8005 H       1  UNL         0.0651
     64 H         -13.5898   -1.6563   52.0033 H       1  UNL         0.0638
     65 H         -13.9046    2.5703   52.8330 H       1  UNL         0.0653
     66 H          -3.0116    6.7076   52.4074 H       1  UNL         0.0433
     67 H          -4.3986    5.9888   53.2703 H       1  UNL         0.0433
     68 H          -4.3767    6.0841   51.4815 H       1  UNL         0.0433
     69 H           2.2403    5.8598   54.8650 H       1  UNL         0.0535
     70 H           2.0873    4.3399   55.7794 H       1  UNL         0.0535
     71 H           1.2867    5.8275   56.3678 H       1  UNL         0.0535
@<TRIPOS>BOND
     1     1     2   ar
     2     1     6   ar
     3     1    39    1
     4     2     3   ar
     5     2    40    1
     6     3     4   ar
     7     3    37    1
     8     4     5   ar
     9     4     7    1
    10     5     6   ar
    11     5    41    1
    12     6    42    1
    13     7     8    1
    14     7    15    1
    15     7    43    1
    16     8     9   ar
    17     8    13   ar
    18     9    10   ar
    19     9    14    1
    20    10    11   ar
    21    10    44    1
    22    11    12   ar
    23    11    45    1
    24    12    13   ar
    25    12    46    1
    26    14    47    1
    27    14    48    1
    28    14    49    1
    29    15    16   am
    30    15    36    1
    31    16    17    2
    32    16    18    1
    33    18    19    1
    34    18    23    1
    35    18    50    1
    36    19    20    1
    37    19    51    1
    38    19    52    1
    39    20    21    1
    40    20    53    1
    41    20    54    1
    42    21    22    1
    43    21    24    1
    44    22    23    1
    45    22    55    1
    46    22    56    1
    47    23    57    1
    48    23    58    1
    49    24    25    1
    50    24    59    1
    51    24    60    1
    52    25    26    1
    53    25    61    1
    54    25    62    1
    55    26    27    1
    56    27    28   ar
    57    27    32   ar
    58    28    29   ar
    59    28    63    1
    60    29    30   ar
    61    29    64    1
    62    30    31   ar
    63    30    34    1
    64    31    32   ar
    65    31    65    1
    66    32    33    1
    67    34    35    3
    68    36    66    1
    69    36    67    1
    70    36    68    1
    71    37    38    1
    72    38    69    1
    73    38    70    1
    74    38    71    1
@<TRIPOS>SUBSTRUCTURE
     1 UNL         1 TEMP              0 ****  ****    0 ROOT


##########                                Name:    ZINC000980108339
##########                DOCK_Rotatable_Bonds:                   9
##########                         Heavy_Atoms:                  25
##########                    Molecular_Weight:             348.445
##########                DOCK_Rotatable_Bonds:                   9
##########                       Formal_Charge:          -0.0100001
##########                     HBond_Acceptors:                   7
##########                        HBond_Donors:                   3
##########                         Heavy_Atoms:                  25
##########                          Grid_Score:          -34.253899
##########                     Grid_vdw_energy:          -32.217449
##########                      Grid_es_energy:           -2.036448
##########           Internal_energy_repulsive:            5.465775

@<TRIPOS>MOLECULE
ZINC000980108339
 53 56 1 0 0
SMALL
USER_CHARGES


@<TRIPOS>ATOM
      1 C1          2.9878    1.9519   49.0281 C.3     1  ZINC000980108339    0.1200
      2 N2          2.0736    2.2912   50.1215 N.am    1  ZINC000980108339   -0.6400
      3 C3          1.8132    3.6484   50.6243 C.3     1  ZINC000980108339    0.1100
      4 C4          0.7908    3.4326   51.7569 C.3     1  ZINC000980108339    0.1000
      5 H5          1.1980    3.7710   52.7097 H       1  ZINC000980108339    0.1200
      6 C6         -0.4983    4.1502   51.4496 C.2     1  ZINC000980108339    0.5000
      7 O7         -0.4747    5.2965   51.0541 O.2     1  ZINC000980108339   -0.5200
      8 N8         -1.6772    3.5182   51.6140 N.am    1  ZINC000980108339   -0.7200
      9 C9         -2.9303    4.2163   51.3168 C.3     1  ZINC000980108339    0.1300
     10 C10        -4.1132    3.3019   51.6418 C.3     1  ZINC000980108339   -0.1200
     11 H11        -4.1765    3.0521   52.7009 H       1  ZINC000980108339    0.1000
     12 C12        -5.4453    3.7809   51.0412 C.3     1  ZINC000980108339   -0.1400
     13 C13        -5.7441    2.3053   50.7278 C.3     1  ZINC000980108339    0.1200
     14 H14        -6.2182    2.1522   49.7583 H       1  ZINC000980108339    0.1100
     15 N15        -6.4308    1.6021   51.8142 N.am    1  ZINC000980108339   -0.7200
     16 C16        -7.2305    0.5529   51.5384 C.2     1  ZINC000980108339    0.5200
     17 O17        -7.3805    0.1900   50.3908 O.2     1  ZINC000980108339   -0.5300
     18 C18        -7.9383   -0.1695   52.6557 C.3     1  ZINC000980108339   -0.1100
     19 C19        -9.3584   -0.5270   52.2129 C.3     1  ZINC000980108339   -0.1300
     20 H20        -9.4331   -1.3174   51.4660 H       1  ZINC000980108339    0.1200
     21 C21       -10.3842    0.6063   52.1470 C.3     1  ZINC000980108339   -0.1700
     22 C22       -10.4687   -0.4391   53.2620 C.3     1  ZINC000980108339   -0.1200
     23 H23       -10.1875   -0.1264   54.2675 H       1  ZINC000980108339    0.1000
     24 C24       -11.5994   -1.4668   53.1825 C.3     1  ZINC000980108339   -0.1300
     25 C25       -12.4270   -1.7057   54.4471 C.3     1  ZINC000980108339   -0.1800
     26 C26       -13.0353   -0.9452   53.2670 C.3     1  ZINC000980108339   -0.1800
     27 C27        -4.2212    2.0807   50.7134 C.3     1  ZINC000980108339   -0.1400
     28 N28         0.5836    1.9768   51.7720 N.am    1  ZINC000980108339   -0.7200
     29 C29         1.3379    1.4150   50.8181 C.2     1  ZINC000980108339    0.7000
     30 O30         1.3595    0.2174   50.6096 O.2     1  ZINC000980108339   -0.5800
     31 H31         2.9781    0.8738   48.8677 H       1  ZINC000980108339    0.0900
     32 H32         2.6680    2.4577   48.1170 H       1  ZINC000980108339    0.0600
     33 H33         3.9973    2.2719   49.2861 H       1  ZINC000980108339    0.0600
     34 H34         2.7283    4.0938   51.0147 H       1  ZINC000980108339    0.1000
     35 H35         1.3877    4.2724   49.8385 H       1  ZINC000980108339    0.0900
     36 H36        -1.6960    2.6009   51.9290 H       1  ZINC000980108339    0.4000
     37 H37        -2.9941    5.1214   51.9209 H       1  ZINC000980108339    0.0700
     38 H38        -2.9564    4.4823   50.2601 H       1  ZINC000980108339    0.0700
     39 H39        -6.1232    4.2174   51.7748 H       1  ZINC000980108339    0.0800
     40 H40        -5.3259    4.4005   50.1524 H       1  ZINC000980108339    0.1000
     41 H41        -6.3098    1.8915   52.7321 H       1  ZINC000980108339    0.4000
     42 H42        -7.3938   -1.0813   52.9011 H       1  ZINC000980108339    0.1000
     43 H43        -7.9828    0.4746   53.5339 H       1  ZINC000980108339    0.1000
     44 H44       -10.0472    1.6066   52.4193 H       1  ZINC000980108339    0.0900
     45 H45       -11.1339    0.5613   51.3571 H       1  ZINC000980108339    0.1000
     46 H46       -11.4121   -2.3226   52.5340 H       1  ZINC000980108339    0.1000
     47 H47       -12.7843   -2.7190   54.6307 H       1  ZINC000980108339    0.0900
     48 H48       -12.1659   -1.1308   55.3354 H       1  ZINC000980108339    0.0900
     49 H49       -13.1744    0.1301   53.3790 H       1  ZINC000980108339    0.0900
     50 H50       -13.7927   -1.4581   52.6742 H       1  ZINC000980108339    0.0900
     51 H51        -3.7663    2.2354   49.7350 H       1  ZINC000980108339    0.1000
     52 H52        -3.9132    1.1459   51.1815 H       1  ZINC000980108339    0.0800
     53 H53        -0.0083    1.4996   52.3742 H       1  ZINC000980108339    0.4400
@<TRIPOS>BOND
     1     1     2    1
     2     1    31    1
     3     1    32    1
     4     1    33    1
     5     2    29   am
     6     2     3    1
     7     3     4    1
     8     3    34    1
     9     3    35    1
    10     4     5    1
    11     4     6    1
    12     4    28    1
    13     6     7    2
    14     6     8   am
    15     8     9    1
    16     8    36    1
    17     9    10    1
    18     9    37    1
    19     9    38    1
    20    10    11    1
    21    10    27    1
    22    10    12    1
    23    12    13    1
    24    12    39    1
    25    12    40    1
    26    13    14    1
    27    13    15    1
    28    13    27    1
    29    15    16   am
    30    15    41    1
    31    16    17    2
    32    16    18    1
    33    18    19    1
    34    18    42    1
    35    18    43    1
    36    19    20    1
    37    19    22    1
    38    19    21    1
    39    21    22    1
    40    21    44    1
    41    21    45    1
    42    22    23    1
    43    22    24    1
    44    24    26    1
    45    24    25    1
    46    24    46    1
    47    25    26    1
    48    25    47    1
    49    25    48    1
    50    26    49    1
    51    26    50    1
    52    27    51    1
    53    27    52    1
    54    28    29   am
    55    28    53    1
    56    29    30    2
@<TRIPOS>SUBSTRUCTURE
     1 ZINC000980108339        1 TEMP              0 ****  ****    0 ROOT


##########                                Name:    ZINC000992031068
##########                DOCK_Rotatable_Bonds:                   8
##########                         Heavy_Atoms:                  25
##########                    Molecular_Weight:             342.401
##########                DOCK_Rotatable_Bonds:                   8
##########                       Formal_Charge:           0.0199999
##########                     HBond_Acceptors:                   8
##########                        HBond_Donors:                   2
##########                         Heavy_Atoms:                  25
##########                          Grid_Score:          -34.239044
##########                     Grid_vdw_energy:          -33.043381
##########                      Grid_es_energy:           -1.195664
##########           Internal_energy_repulsive:            7.515051

@<TRIPOS>MOLECULE
ZINC000992031068
 47 49 1 0 0
SMALL
USER_CHARGES


@<TRIPOS>ATOM
      1 C1         -7.2580    3.3707   67.4854 C.3     1  ZINC000992031068   -0.1100
      2 C2         -7.6203    2.0564   66.8431 C.ar    1  ZINC000992031068    0.1800
      3 C3         -8.2982    2.0291   65.6327 C.ar    1  ZINC000992031068   -0.1700
      4 C4         -8.6107    0.7873   65.0783 C.ar    1  ZINC000992031068    0.1300
      5 C5         -9.3344    0.6988   63.7851 C.2     1  ZINC000992031068    0.5700
      6 O6        -10.4858    0.3125   63.7586 O.2     1  ZINC000992031068   -0.5200
      7 N7         -8.7140    1.0470   62.6405 N.am    1  ZINC000992031068   -0.7100
      8 C8         -9.4287    0.9613   61.3645 C.3     1  ZINC000992031068    0.1300
      9 C9         -9.0191   -0.3198   60.6354 C.3     1  ZINC000992031068   -0.1200
     10 C10       -10.1184   -1.3951   60.6145 C.3     1  ZINC000992031068   -0.1400
     11 C11        -9.6979   -1.6846   59.1639 C.3     1  ZINC000992031068    0.1200
     12 N12       -10.8268   -1.9386   58.2653 N.am    1  ZINC000992031068   -0.7200
     13 C13       -11.2382   -3.2023   58.0407 C.2     1  ZINC000992031068    0.5200
     14 O14       -10.6749   -4.1289   58.5836 O.2     1  ZINC000992031068   -0.5200
     15 C15       -12.3983   -3.4636   57.1150 C.3     1  ZINC000992031068   -0.0800
     16 C16       -13.6875   -3.3884   57.8917 C.2     1  ZINC000992031068    0.1000
     17 C17       -13.9175   -2.6233   58.9837 C.2     1  ZINC000992031068   -0.2500
     18 C18       -15.2353   -2.8466   59.3960 C.2     1  ZINC000992031068    0.0500
     19 N19       -15.7770   -3.7146   58.5806 N.2     1  ZINC000992031068   -0.2900
     20 N20       -14.8213   -4.0677   57.6191 N.pl3   1  ZINC000992031068   -0.3700
     21 C21       -15.0155   -5.0141   56.5179 C.3     1  ZINC000992031068    0.1000
     22 C22        -9.1798   -0.2378   59.1082 C.3     1  ZINC000992031068   -0.1400
     23 N23        -8.2487   -0.3164   65.7278 N.ar    1  ZINC000992031068   -0.5000
     24 C24        -7.6067   -0.2422   66.8740 C.ar    1  ZINC000992031068    0.3000
     25 N25        -7.2916    0.9148   67.4230 N.ar    1  ZINC000992031068   -0.5100
     26 H26        -6.2761    3.6882   67.1343 H       1  ZINC000992031068    0.0900
     27 H27        -8.0001    4.1228   67.2176 H       1  ZINC000992031068    0.0900
     28 H28        -7.2356    3.2518   68.5686 H       1  ZINC000992031068    0.0900
     29 H29        -8.5770    2.9450   65.1329 H       1  ZINC000992031068    0.1600
     30 H30        -7.7942    1.3544   62.6614 H       1  ZINC000992031068    0.4100
     31 H31       -10.5027    0.9464   61.5500 H       1  ZINC000992031068    0.0700
     32 H32        -9.1783    1.8255   60.7491 H       1  ZINC000992031068    0.0800
     33 H33        -8.0459   -0.6946   60.9526 H       1  ZINC000992031068    0.1000
     34 H34        -9.9314   -2.2240   61.2970 H       1  ZINC000992031068    0.0800
     35 H35       -11.1265   -0.9905   60.7044 H       1  ZINC000992031068    0.0900
     36 H36        -8.9120   -2.4349   59.0786 H       1  ZINC000992031068    0.1200
     37 H37       -11.2781   -1.1974   57.8320 H       1  ZINC000992031068    0.4000
     38 H38       -12.4071   -2.7149   56.3229 H       1  ZINC000992031068    0.1200
     39 H39       -12.2961   -4.4560   56.6757 H       1  ZINC000992031068    0.1100
     40 H40       -13.2086   -1.9580   59.4542 H       1  ZINC000992031068    0.1500
     41 H41       -15.7214   -2.3830   60.2417 H       1  ZINC000992031068    0.1800
     42 H42       -15.3868   -4.4815   55.6423 H       1  ZINC000992031068    0.0800
     43 H43       -14.0655   -5.4913   56.2771 H       1  ZINC000992031068    0.0800
     44 H44       -15.7386   -5.7737   56.8149 H       1  ZINC000992031068    0.0900
     45 H45        -9.9313    0.4831   58.7863 H       1  ZINC000992031068    0.0900
     46 H46        -8.2351   -0.1326   58.5748 H       1  ZINC000992031068    0.0800
     47 H47        -7.3261   -1.1554   67.3777 H       1  ZINC000992031068    0.2100
@<TRIPOS>BOND
     1     1     2    1
     2     1    26    1
     3     1    27    1
     4     1    28    1
     5     2    25   ar
     6     2     3   ar
     7     3     4   ar
     8     3    29    1
     9     4     5    1
    10     4    23   ar
    11     5     6    2
    12     5     7   am
    13     7     8    1
    14     7    30    1
    15     8     9    1
    16     8    31    1
    17     8    32    1
    18     9    22    1
    19     9    10    1
    20     9    33    1
    21    10    11    1
    22    10    34    1
    23    10    35    1
    24    11    12    1
    25    11    22    1
    26    11    36    1
    27    12    13   am
    28    12    37    1
    29    13    14    2
    30    13    15    1
    31    15    16    1
    32    15    38    1
    33    15    39    1
    34    16    20    1
    35    16    17    2
    36    17    18    1
    37    17    40    1
    38    18    19    2
    39    18    41    1
    40    19    20    1
    41    20    21    1
    42    21    42    1
    43    21    43    1
    44    21    44    1
    45    22    45    1
    46    22    46    1
    47    23    24   ar
    48    24    25   ar
    49    24    47    1
@<TRIPOS>SUBSTRUCTURE
     1 ZINC000992031068        1 TEMP              0 ****  ****    0 ROOT


##########                                Name:    ZINC000484900616
##########                DOCK_Rotatable_Bonds:                  10
##########                         Heavy_Atoms:                  29
##########                    Molecular_Weight:             415.556
##########                DOCK_Rotatable_Bonds:                  10
##########                       Formal_Charge:        -1.49012e-08
##########                     HBond_Acceptors:                   7
##########                        HBond_Donors:                   1
##########                         Heavy_Atoms:                  29
##########                          Grid_Score:          -34.206776
##########                     Grid_vdw_energy:          -33.437943
##########                      Grid_es_energy:           -0.768833
##########           Internal_energy_repulsive:           10.836822

@<TRIPOS>MOLECULE
ZINC000484900616
 58 60 1 0 0
SMALL
USER_CHARGES


@<TRIPOS>ATOM
      1 C1         -0.2040    1.8629   59.4958 C.3     1  ZINC000484900616   -0.1500
      2 C2         -0.1320    2.3756   58.0561 C.3     1  ZINC000484900616    0.0600
      3 O3         -1.1874    3.3480   57.8353 O.3     1  ZINC000484900616   -0.3400
      4 C4         -2.4201    2.8659   57.5803 C.2     1  ZINC000484900616    0.5500
      5 O5         -2.5874    1.6706   57.4361 O.2     1  ZINC000484900616   -0.5000
      6 C6         -3.5631    3.7863   57.4763 C.2     1  ZINC000484900616    0.0200
      7 C7         -3.5128    5.0768   57.8791 C.2     1  ZINC000484900616   -0.2400
      8 S8         -5.0327    5.8040   57.5911 S.3     1  ZINC000484900616    0.2900
      9 C9         -5.6473    4.3453   56.9503 C.2     1  ZINC000484900616    0.0300
     10 C10        -7.0491    4.1605   56.4287 C.3     1  ZINC000484900616    0.1500
     11 H11        -7.7070    4.9316   56.8295 H       1  ZINC000484900616    0.0900
     12 C12        -7.0573    4.1962   54.8801 C.3     1  ZINC000484900616   -0.1200
     13 C13        -8.3461    3.3959   54.5551 C.3     1  ZINC000484900616   -0.1400
     14 C14        -8.3719    2.3158   55.6570 C.3     1  ZINC000484900616    0.0500
     15 N15        -7.5564    2.8171   56.7806 N.3     1  ZINC000484900616   -0.5100
     16 C16        -8.3386    2.8543   58.0234 C.3     1  ZINC000484900616    0.0300
     17 C17        -8.4006    1.4715   58.6195 C.2     1  ZINC000484900616    0.5200
     18 O18        -7.8623    0.5430   58.0547 O.2     1  ZINC000484900616   -0.5100
     19 N19        -9.0542    1.2668   59.7802 N.am    1  ZINC000484900616   -0.7300
     20 C20        -9.1130   -0.0771   60.3605 C.3     1  ZINC000484900616    0.1900
     21 H21        -8.1365   -0.5534   60.2739 H       1  ZINC000484900616    0.1000
     22 C22        -9.5032    0.0216   61.8367 C.3     1  ZINC000484900616   -0.1600
     23 C23       -10.1395   -0.8981   59.6235 C.ar    1  ZINC000484900616   -0.1000
     24 C24        -9.8707   -2.2158   59.3035 C.ar    1  ZINC000484900616   -0.1100
     25 C25       -10.8123   -2.9689   58.6275 C.ar    1  ZINC000484900616   -0.1100
     26 C26       -12.0230   -2.4045   58.2717 C.ar    1  ZINC000484900616   -0.0800
     27 C27       -13.0494   -3.2254   57.5343 C.3     1  ZINC000484900616   -0.0900
     28 C28       -13.2203   -2.6748   56.1171 C.3     1  ZINC000484900616   -0.1500
     29 C29       -12.2924   -1.0873   58.5929 C.ar    1  ZINC000484900616   -0.1100
     30 C30       -11.3523   -0.3353   59.2723 C.ar    1  ZINC000484900616   -0.1000
     31 N31        -4.7462    3.4277   56.9700 N.2     1  ZINC000484900616   -0.4300
     32 H32        -0.0790    2.6977   60.1855 H       1  ZINC000484900616    0.0700
     33 H33        -1.1726    1.3928   59.6661 H       1  ZINC000484900616    0.0700
     34 H34         0.5884    1.1329   59.6616 H       1  ZINC000484900616    0.0800
     35 H35         0.8366    2.8457   57.8859 H       1  ZINC000484900616    0.0700
     36 H36        -0.2569    1.5408   57.3664 H       1  ZINC000484900616    0.0700
     37 H37        -2.6533    5.5673   58.3118 H       1  ZINC000484900616    0.1900
     38 H38        -7.1307    5.2201   54.5134 H       1  ZINC000484900616    0.0900
     39 H39        -6.1764    3.6996   54.4734 H       1  ZINC000484900616    0.0800
     40 H40        -9.2251    4.0369   54.6231 H       1  ZINC000484900616    0.0700
     41 H41        -8.2770    2.9382   53.5683 H       1  ZINC000484900616    0.0800
     42 H42        -9.3964    2.1498   55.9897 H       1  ZINC000484900616    0.0600
     43 H43        -7.9483    1.3868   55.2754 H       1  ZINC000484900616    0.0900
     44 H44        -7.8643    3.5341   58.7311 H       1  ZINC000484900616    0.1100
     45 H45        -9.3486    3.2021   57.8066 H       1  ZINC000484900616    0.0700
     46 H46        -9.4859    2.0091   60.2312 H       1  ZINC000484900616    0.4000
     47 H47        -9.5469   -0.9783   62.2685 H       1  ZINC000484900616    0.0700
     48 H48        -8.7607    0.6154   62.3698 H       1  ZINC000484900616    0.0700
     49 H49       -10.4797    0.4979   61.9234 H       1  ZINC000484900616    0.0600
     50 H50        -8.9248   -2.6568   59.5814 H       1  ZINC000484900616    0.1200
     51 H51       -10.6019   -3.9982   58.3768 H       1  ZINC000484900616    0.1200
     52 H52       -12.7171   -4.2623   57.4837 H       1  ZINC000484900616    0.0700
     53 H53       -14.0022   -3.1744   58.0613 H       1  ZINC000484900616    0.0700
     54 H54       -13.5526   -1.6379   56.1678 H       1  ZINC000484900616    0.0600
     55 H55       -12.2676   -2.7258   55.5901 H       1  ZINC000484900616    0.0600
     56 H56       -13.9628   -3.2685   55.5838 H       1  ZINC000484900616    0.0600
     57 H57       -13.2385   -0.6464   58.3153 H       1  ZINC000484900616    0.1200
     58 H58       -11.5628    0.6939   59.5233 H       1  ZINC000484900616    0.1200
@<TRIPOS>BOND
     1     1     2    1
     2     1    32    1
     3     1    33    1
     4     1    34    1
     5     2     3    1
     6     2    35    1
     7     2    36    1
     8     3     4    1
     9     4     5    2
    10     4     6    1
    11     6    31    1
    12     6     7    2
    13     7     8    1
    14     7    37    1
    15     8     9    1
    16     9    10    1
    17     9    31    2
    18    10    11    1
    19    10    15    1
    20    10    12    1
    21    12    13    1
    22    12    38    1
    23    12    39    1
    24    13    14    1
    25    13    40    1
    26    13    41    1
    27    14    15    1
    28    14    42    1
    29    14    43    1
    30    15    16    1
    31    16    17    1
    32    16    44    1
    33    16    45    1
    34    17    18    2
    35    17    19   am
    36    19    20    1
    37    19    46    1
    38    20    21    1
    39    20    22    1
    40    20    23    1
    41    22    47    1
    42    22    48    1
    43    22    49    1
    44    23    30   ar
    45    23    24   ar
    46    24    25   ar
    47    24    50    1
    48    25    26   ar
    49    25    51    1
    50    26    27    1
    51    26    29   ar
    52    27    28    1
    53    27    52    1
    54    27    53    1
    55    28    54    1
    56    28    55    1
    57    28    56    1
    58    29    30   ar
    59    29    57    1
    60    30    58    1
@<TRIPOS>SUBSTRUCTURE
     1 ZINC000484900616        1 TEMP              0 ****  ****    0 ROOT


##########                                Name:    ZINC000045927156
##########                DOCK_Rotatable_Bonds:                   7
##########                         Heavy_Atoms:                  30
##########                    Molecular_Weight:             418.522
##########                DOCK_Rotatable_Bonds:                   7
##########                       Formal_Charge:           0.0200001
##########                     HBond_Acceptors:                   8
##########                        HBond_Donors:                   1
##########                         Heavy_Atoms:                  30
##########                          Grid_Score:          -34.201603
##########                     Grid_vdw_energy:          -32.569054
##########                      Grid_es_energy:           -1.632549
##########           Internal_energy_repulsive:           15.943584

@<TRIPOS>MOLECULE
ZINC000045927156
 52 56 1 0 0
SMALL
USER_CHARGES


@<TRIPOS>ATOM
      1 O1         -9.5267   -1.1936   61.7203 O.2     1  ZINC000045927156   -0.5800
      2 C2         -9.2789   -0.0107   61.5872 C.2     1  ZINC000045927156    0.7300
      3 N3         -8.7674    0.6908   62.6181 N.am    1  ZINC000045927156   -0.7400
      4 C4         -8.5156    0.0294   63.9009 C.3     1  ZINC000045927156    0.1700
      5 C5         -9.2130    0.7862   65.0017 C.ar    1  ZINC000045927156   -0.0700
      6 C6        -10.3477    1.5238   64.7217 C.ar    1  ZINC000045927156   -0.1000
      7 C7        -10.9876    2.2181   65.7316 C.ar    1  ZINC000045927156   -0.1100
      8 C8        -10.4928    2.1742   67.0214 C.ar    1  ZINC000045927156   -0.1100
      9 C9         -9.3582    1.4355   67.3017 C.ar    1  ZINC000045927156   -0.1000
     10 C10        -8.7210    0.7380   66.2929 C.ar    1  ZINC000045927156   -0.1000
     11 C11        -7.4843   -0.0672   66.5984 C.3     1  ZINC000045927156    0.1700
     12 N12        -6.3002    0.7838   66.4569 N.pl3   1  ZINC000045927156   -0.3800
     13 C13        -6.1653    1.8483   65.6470 C.2     1  ZINC000045927156    0.2500
     14 N14        -4.9626    2.3355   65.8140 N.2     1  ZINC000045927156   -0.5400
     15 C15        -4.3034    1.6123   66.7183 C.2     1  ZINC000045927156    0.2000
     16 N16        -5.0828    0.6536   67.1451 N.2     1  ZINC000045927156   -0.3100
     17 N17        -9.5106    0.5978   60.4072 N.am    1  ZINC000045927156   -0.6200
     18 C18        -9.2530    2.0181   60.1076 C.3     1  ZINC000045927156    0.1000
     19 C19        -9.0767    2.0735   58.5696 C.3     1  ZINC000045927156   -0.1300
     20 C20       -10.1225    1.0286   58.0984 C.3     1  ZINC000045927156   -0.1200
     21 C21       -10.0560   -0.0464   59.2034 C.3     1  ZINC000045927156    0.2300
     22 H22        -9.4067   -0.8630   58.8875 H       1  ZINC000045927156    0.1000
     23 C23       -11.4386   -0.5729   59.4902 C.2     1  ZINC000045927156    0.0900
     24 N24       -12.0369   -1.4502   58.7767 N.2     1  ZINC000045927156   -0.4500
     25 C25       -13.2734   -1.8294   59.1521 C.ar    1  ZINC000045927156    0.0800
     26 C26       -14.1473   -2.7626   58.5594 C.ar    1  ZINC000045927156   -0.0700
     27 C27       -15.3722   -3.0034   59.1046 C.ar    1  ZINC000045927156   -0.1100
     28 C28       -15.7825   -2.3376   60.2507 C.ar    1  ZINC000045927156   -0.1000
     29 C29       -14.9495   -1.4205   60.8514 C.ar    1  ZINC000045927156   -0.0700
     30 C30       -13.6934   -1.1614   60.3079 C.ar    1  ZINC000045927156   -0.1800
     31 S31       -12.3990   -0.0789   60.8113 S.3     1  ZINC000045927156    0.1200
     32 H32        -8.5659    1.6336   62.5107 H       1  ZINC000045927156    0.3900
     33 H33        -8.8960   -0.9914   63.8641 H       1  ZINC000045927156    0.1000
     34 H34        -7.4433    0.0107   64.0957 H       1  ZINC000045927156    0.0700
     35 H35       -10.7345    1.5581   63.7138 H       1  ZINC000045927156    0.1300
     36 H36       -11.8739    2.7951   65.5127 H       1  ZINC000045927156    0.1300
     37 H37       -10.9922    2.7171   67.8101 H       1  ZINC000045927156    0.1300
     38 H38        -8.9713    1.4015   68.3094 H       1  ZINC000045927156    0.1300
     39 H39        -7.5399   -0.4454   67.6192 H       1  ZINC000045927156    0.1100
     40 H40        -7.4151   -0.9044   65.9040 H       1  ZINC000045927156    0.1000
     41 H41        -6.9180    2.2336   64.9753 H       1  ZINC000045927156    0.2200
     42 H42        -3.2909    1.7917   67.0484 H       1  ZINC000045927156    0.2200
     43 H43       -10.1010    2.6303   60.4145 H       1  ZINC000045927156    0.0700
     44 H44        -8.3429    2.3520   60.6060 H       1  ZINC000045927156    0.0800
     45 H45        -9.3142    3.0651   58.1845 H       1  ZINC000045927156    0.0900
     46 H46        -8.0689    1.7751   58.2809 H       1  ZINC000045927156    0.0800
     47 H47       -11.1162    1.4736   58.0475 H       1  ZINC000045927156    0.0900
     48 H48        -9.8382    0.6061   57.1348 H       1  ZINC000045927156    0.0900
     49 H49       -13.8442   -3.2900   57.6670 H       1  ZINC000045927156    0.1300
     50 H50       -16.0319   -3.7208   58.6392 H       1  ZINC000045927156    0.1400
     51 H51       -16.7565   -2.5387   60.6718 H       1  ZINC000045927156    0.1400
     52 H52       -15.2700   -0.9021   61.7430 H       1  ZINC000045927156    0.1300
@<TRIPOS>BOND
     1     1     2    2
     2     2     3   am
     3     2    17   am
     4     3     4    1
     5     3    32    1
     6     4     5    1
     7     4    33    1
     8     4    34    1
     9     5    10   ar
    10     5     6   ar
    11     6     7   ar
    12     6    35    1
    13     7     8   ar
    14     7    36    1
    15     8     9   ar
    16     8    37    1
    17     9    10   ar
    18     9    38    1
    19    10    11    1
    20    11    12    1
    21    11    39    1
    22    11    40    1
    23    12    16    1
    24    12    13    1
    25    13    14    2
    26    13    41    1
    27    14    15    1
    28    15    16    2
    29    15    42    1
    30    17    21    1
    31    17    18    1
    32    18    19    1
    33    18    43    1
    34    18    44    1
    35    19    20    1
    36    19    45    1
    37    19    46    1
    38    20    21    1
    39    20    47    1
    40    20    48    1
    41    21    22    1
    42    21    23    1
    43    23    31    1
    44    23    24    2
    45    24    25    1
    46    25    30   ar
    47    25    26   ar
    48    26    27   ar
    49    26    49    1
    50    27    28   ar
    51    27    50    1
    52    28    29   ar
    53    28    51    1
    54    29    30   ar
    55    29    52    1
    56    30    31    1
@<TRIPOS>SUBSTRUCTURE
     1 ZINC000045927156        1 TEMP              0 ****  ****    0 ROOT


##########                                Name:    ZINC000762187039
##########                DOCK_Rotatable_Bonds:                   9
##########                         Heavy_Atoms:                  25
##########                    Molecular_Weight:             354.473
##########                DOCK_Rotatable_Bonds:                   9
##########                       Formal_Charge:        -1.78814e-07
##########                     HBond_Acceptors:                   5
##########                        HBond_Donors:                   1
##########                         Heavy_Atoms:                  25
##########                          Grid_Score:          -34.200867
##########                     Grid_vdw_energy:          -33.939449
##########                      Grid_es_energy:           -0.261416
##########           Internal_energy_repulsive:            6.025599

@<TRIPOS>MOLECULE
ZINC000762187039
 47 49 1 0 0
SMALL
USER_CHARGES


@<TRIPOS>ATOM
      1 C1         -7.4353    0.2103   51.5276 C.3     1  ZINC000762187039   -0.0800
      2 C2         -6.3858    1.2664   51.7604 C.2     1  ZINC000762187039    0.0500
      3 N3         -5.2697    1.3525   51.1188 N.2     1  ZINC000762187039   -0.4700
      4 C4         -4.4622    2.3407   51.4475 C.2     1  ZINC000762187039    0.0700
      5 C5         -3.1290    2.5604   50.7804 C.3     1  ZINC000762187039   -0.0300
      6 C6         -2.1580    3.1953   51.7779 C.3     1  ZINC000762187039   -0.1300
      7 C7         -0.8104    3.3692   51.1260 C.2     1  ZINC000762187039    0.5200
      8 O8         -0.5203    4.4257   50.6059 O.2     1  ZINC000762187039   -0.5400
      9 N9          0.0721    2.3507   51.1209 N.am    1  ZINC000762187039   -0.7300
     10 C10         1.3815    2.5192   50.4858 C.3     1  ZINC000762187039    0.1200
     11 C11         1.8525    1.1762   49.9241 C.3     1  ZINC000762187039   -0.1300
     12 C12         2.9972    1.4099   48.9362 C.3     1  ZINC000762187039    0.0600
     13 O13         3.1654    0.2497   48.1189 O.3     1  ZINC000762187039   -0.3100
     14 C14         2.8148    0.3606   46.8108 C.ar    1  ZINC000762187039    0.1300
     15 C15         3.7772    0.7331   45.8677 C.ar    1  ZINC000762187039   -0.1900
     16 C16         3.4568    0.8524   44.5512 C.ar    1  ZINC000762187039   -0.0600
     17 C17         2.1406    0.5982   44.1284 C.ar    1  ZINC000762187039   -0.0800
     18 C18         1.7752    0.7116   42.7762 C.ar    1  ZINC000762187039   -0.0900
     19 C19         0.4916    0.4576   42.4017 C.ar    1  ZINC000762187039   -0.1300
     20 C20        -0.4697    0.0857   43.3399 C.ar    1  ZINC000762187039   -0.1000
     21 C21        -0.1528   -0.0342   44.6579 C.ar    1  ZINC000762187039   -0.1200
     22 C22         1.1630    0.2199   45.0829 C.ar    1  ZINC000762187039   -0.0100
     23 C23         1.5277    0.1012   46.4336 C.ar    1  ZINC000762187039   -0.1500
     24 C24        -4.9230    3.1325   52.4207 C.2     1  ZINC000762187039   -0.2600
     25 S25        -6.5048    2.5283   52.9079 S.3     1  ZINC000762187039    0.1200
     26 H26        -8.2750    0.3777   52.2022 H       1  ZINC000762187039    0.0800
     27 H27        -7.7820    0.2638   50.4956 H       1  ZINC000762187039    0.0900
     28 H28        -7.0080   -0.7745   51.7168 H       1  ZINC000762187039    0.0900
     29 H29        -2.7295    1.6041   50.4429 H       1  ZINC000762187039    0.0900
     30 H30        -3.2558    3.2235   49.9245 H       1  ZINC000762187039    0.0900
     31 H31        -2.5399    4.1680   52.0878 H       1  ZINC000762187039    0.0900
     32 H32        -2.0590    2.5491   52.6500 H       1  ZINC000762187039    0.1000
     33 H33        -0.1595    1.5061   51.5379 H       1  ZINC000762187039    0.4000
     34 H34         1.3016    3.2439   49.6755 H       1  ZINC000762187039    0.0700
     35 H35         2.0999    2.8766   51.2234 H       1  ZINC000762187039    0.0700
     36 H36         2.2004    0.5430   50.7403 H       1  ZINC000762187039    0.0800
     37 H37         1.0246    0.6862   49.4116 H       1  ZINC000762187039    0.0800
     38 H38         2.7636    2.2677   48.3057 H       1  ZINC000762187039    0.0700
     39 H39         3.9181    1.6034   49.4863 H       1  ZINC000762187039    0.0700
     40 H40         4.7895    0.9292   46.1891 H       1  ZINC000762187039    0.1300
     41 H41         4.2104    1.1417   43.8338 H       1  ZINC000762187039    0.1300
     42 H42         2.5091    0.9990   42.0379 H       1  ZINC000762187039    0.1300
     43 H43         0.2137    0.5458   41.3618 H       1  ZINC000762187039    0.1200
     44 H44        -1.4813   -0.1098   43.0161 H       1  ZINC000762187039    0.1200
     45 H45        -0.9081   -0.3232   45.3737 H       1  ZINC000762187039    0.1300
     46 H46         0.7940   -0.1901   47.1706 H       1  ZINC000762187039    0.1300
     47 H47        -4.4168    3.9928   52.8329 H       1  ZINC000762187039    0.1800
@<TRIPOS>BOND
     1     1     2    1
     2     1    26    1
     3     1    27    1
     4     1    28    1
     5     2    25    1
     6     2     3    2
     7     3     4    1
     8     4     5    1
     9     4    24    2
    10     5     6    1
    11     5    29    1
    12     5    30    1
    13     6     7    1
    14     6    31    1
    15     6    32    1
    16     7     8    2
    17     7     9   am
    18     9    10    1
    19     9    33    1
    20    10    11    1
    21    10    34    1
    22    10    35    1
    23    11    12    1
    24    11    36    1
    25    11    37    1
    26    12    13    1
    27    12    38    1
    28    12    39    1
    29    13    14    1
    30    14    23   ar
    31    14    15   ar
    32    15    16   ar
    33    15    40    1
    34    16    17   ar
    35    16    41    1
    36    17    22   ar
    37    17    18   ar
    38    18    19   ar
    39    18    42    1
    40    19    20   ar
    41    19    43    1
    42    20    21   ar
    43    20    44    1
    44    21    22   ar
    45    21    45    1
    46    22    23   ar
    47    23    46    1
    48    24    25    1
    49    24    47    1
@<TRIPOS>SUBSTRUCTURE
     1 ZINC000762187039        1 TEMP              0 ****  ****    0 ROOT


##########                                Name:    ZINC000466160459
##########                DOCK_Rotatable_Bonds:                   9
##########                         Heavy_Atoms:                  30
##########                    Molecular_Weight:             420.512
##########                DOCK_Rotatable_Bonds:                   9
##########                       Formal_Charge:          -0.0300007
##########                     HBond_Acceptors:                  10
##########                        HBond_Donors:                   2
##########                         Heavy_Atoms:                  30
##########                          Grid_Score:          -34.195930
##########                     Grid_vdw_energy:          -34.278465
##########                      Grid_es_energy:            0.082534
##########           Internal_energy_repulsive:           97.126137

@<TRIPOS>MOLECULE
ZINC000466160459
 62 64 1 0 0
SMALL
USER_CHARGES


@<TRIPOS>ATOM
      1 C1        -11.4540   -4.3771   57.5065 C.3     1  ZINC000466160459    0.0300
      2 O2        -11.6367   -3.0205   57.9167 O.3     1  ZINC000466160459   -0.3900
      3 C3        -11.8911   -2.1167   56.8395 C.3     1  ZINC000466160459    0.0500
      4 C4        -12.1081   -0.7081   57.3961 C.3     1  ZINC000466160459    0.1200
      5 N5        -10.9089   -0.2789   58.1198 N.am    1  ZINC000466160459   -0.7300
      6 C6         -9.9554    0.4300   57.4837 C.2     1  ZINC000466160459    0.5200
      7 O7        -10.0909    0.7140   56.3123 O.2     1  ZINC000466160459   -0.5200
      8 C8         -8.7209    0.8700   58.2277 C.3     1  ZINC000466160459   -0.1300
      9 H9         -8.1969   -0.0050   58.6124 H       1  ZINC000466160459    0.1100
     10 C10        -9.1227    1.7779   59.3923 C.3     1  ZINC000466160459   -0.1000
     11 C11        -9.8879    2.9899   58.8560 C.3     1  ZINC000466160459   -0.1500
     12 C12        -8.9797    3.7859   57.9134 C.3     1  ZINC000466160459    0.1600
     13 H13        -8.1435    4.2011   58.4759 H       1  ZINC000466160459    0.0700
     14 C14        -9.7783    4.9207   57.2689 C.3     1  ZINC000466160459   -0.1400
     15 N15        -8.4725    2.8831   56.8712 N.am    1  ZINC000466160459   -0.6200
     16 C16        -8.6212    3.1879   55.5668 C.2     1  ZINC000466160459    0.7100
     17 O17        -9.1794    4.2183   55.2431 O.2     1  ZINC000466160459   -0.5500
     18 N18        -8.1509    2.3505   54.6212 N.am    1  ZINC000466160459   -0.7300
     19 C19        -8.3125    2.6817   53.2033 C.3     1  ZINC000466160459    0.1600
     20 H20        -8.8937    3.5991   53.1099 H       1  ZINC000466160459    0.1300
     21 C21        -9.0465    1.5404   52.4950 C.3     1  ZINC000466160459   -0.1400
     22 C22        -8.0965    0.3408   52.3963 C.3     1  ZINC000466160459   -0.1400
     23 C23        -6.9559    0.6965   51.4419 C.3     1  ZINC000466160459    0.1100
     24 N24        -6.3608    1.9745   51.8122 N.am    1  ZINC000466160459   -0.5200
     25 C25        -5.0777    2.2660   51.3294 C.2     1  ZINC000466160459    0.2800
     26 N26        -3.9598    2.1810   52.0113 N.2     1  ZINC000466160459   -0.2600
     27 N27        -2.9052    2.5573   51.1698 N.pl3   1  ZINC000466160459   -0.3800
     28 C28        -1.4871    2.6027   51.5348 C.3     1  ZINC000466160459    0.1000
     29 C29        -3.4239    2.8704   49.9637 C.2     1  ZINC000466160459    0.0700
     30 C30        -4.7631    2.6943   50.0298 C.2     1  ZINC000466160459   -0.2900
     31 C31        -6.9607    2.8819   52.5807 C.2     1  ZINC000466160459    0.4900
     32 O32        -6.3846    3.9288   52.7890 O.2     1  ZINC000466160459   -0.4700
     33 C33        -7.7992    1.6412   57.2777 C.3     1  ZINC000466160459    0.1200
     34 H34       -11.2658   -4.9991   58.3815 H       1  ZINC000466160459    0.0900
     35 H35       -12.3525   -4.7271   56.9984 H       1  ZINC000466160459    0.0400
     36 H36       -10.6043   -4.4396   56.8266 H       1  ZINC000466160459    0.0400
     37 H37       -11.0387   -2.1117   56.1603 H       1  ZINC000466160459    0.0600
     38 H38       -12.7833   -2.4357   56.3006 H       1  ZINC000466160459    0.0700
     39 H39       -12.3027   -0.0187   56.5744 H       1  ZINC000466160459    0.0800
     40 H40       -12.9602   -0.7131   58.0756 H       1  ZINC000466160459    0.0800
     41 H41       -10.8010   -0.5050   59.0569 H       1  ZINC000466160459    0.4000
     42 H42        -9.7586    1.2233   60.0824 H       1  ZINC000466160459    0.0700
     43 H43        -8.2278    2.1156   59.9150 H       1  ZINC000466160459    0.0700
     44 H44       -10.7698    2.6518   58.3119 H       1  ZINC000466160459    0.1000
     45 H45       -10.1940    3.6241   59.6879 H       1  ZINC000466160459    0.0700
     46 H46       -10.2441    5.5250   58.0474 H       1  ZINC000466160459    0.0400
     47 H47        -9.1092    5.5447   56.6763 H       1  ZINC000466160459    0.0800
     48 H48       -10.5502    4.5011   56.6239 H       1  ZINC000466160459    0.0600
     49 H49        -7.7054    1.5284   54.8795 H       1  ZINC000466160459    0.3900
     50 H50        -9.9312    1.2618   53.0675 H       1  ZINC000466160459    0.0900
     51 H51        -9.3411    1.8584   51.4949 H       1  ZINC000466160459    0.0900
     52 H52        -7.6910    0.1134   53.3822 H       1  ZINC000466160459    0.0700
     53 H53        -8.6380   -0.5239   52.0127 H       1  ZINC000466160459    0.1000
     54 H54        -6.1940   -0.0817   51.4851 H       1  ZINC000466160459    0.0900
     55 H55        -7.3436    0.7608   50.4253 H       1  ZINC000466160459    0.0800
     56 H56        -1.0268    1.6371   51.3250 H       1  ZINC000466160459    0.0700
     57 H57        -0.9869    3.3775   50.9537 H       1  ZINC000466160459    0.0900
     58 H58        -1.3923    2.8272   52.5971 H       1  ZINC000466160459    0.0900
     59 H59        -2.8677    3.1991   49.0982 H       1  ZINC000466160459    0.1800
     60 H60        -5.4667    2.8610   49.2275 H       1  ZINC000466160459    0.1500
     61 H61        -6.8666    1.8815   57.7883 H       1  ZINC000466160459    0.0900
     62 H62        -7.5900    1.0338   56.3972 H       1  ZINC000466160459    0.0700
@<TRIPOS>BOND
     1     1     2    1
     2     1    34    1
     3     1    35    1
     4     1    36    1
     5     2     3    1
     6     3     4    1
     7     3    37    1
     8     3    38    1
     9     4     5    1
    10     4    39    1
    11     4    40    1
    12     5     6   am
    13     5    41    1
    14     6     7    2
    15     6     8    1
    16     8     9    1
    17     8    33    1
    18     8    10    1
    19    10    11    1
    20    10    42    1
    21    10    43    1
    22    11    12    1
    23    11    44    1
    24    11    45    1
    25    12    13    1
    26    12    14    1
    27    12    15    1
    28    14    46    1
    29    14    47    1
    30    14    48    1
    31    15    16   am
    32    15    33    1
    33    16    17    2
    34    16    18   am
    35    18    19    1
    36    18    49    1
    37    19    20    1
    38    19    31    1
    39    19    21    1
    40    21    22    1
    41    21    50    1
    42    21    51    1
    43    22    23    1
    44    22    52    1
    45    22    53    1
    46    23    24    1
    47    23    54    1
    48    23    55    1
    49    24    25    1
    50    24    31   am
    51    25    30    1
    52    25    26    2
    53    26    27    1
    54    27    28    1
    55    27    29    1
    56    28    56    1
    57    28    57    1
    58    28    58    1
    59    29    30    2
    60    29    59    1
    61    30    60    1
    62    31    32    2
    63    33    61    1
    64    33    62    1
@<TRIPOS>SUBSTRUCTURE
     1 ZINC000466160459        1 TEMP              0 ****  ****    0 ROOT


##########                                Name:    ZINC000550952205
##########                DOCK_Rotatable_Bonds:                   7
##########                         Heavy_Atoms:                  28
##########                    Molecular_Weight:             407.484
##########                DOCK_Rotatable_Bonds:                   7
##########                       Formal_Charge:        -2.68221e-07
##########                     HBond_Acceptors:                   8
##########                        HBond_Donors:                   2
##########                         Heavy_Atoms:                  28
##########                          Grid_Score:          -34.050900
##########                     Grid_vdw_energy:          -34.173935
##########                      Grid_es_energy:            0.123036
##########           Internal_energy_repulsive:            7.411861

@<TRIPOS>MOLECULE
ZINC000550952205
 51 54 1 0 0
SMALL
USER_CHARGES


@<TRIPOS>ATOM
      1 O1         -7.7844    2.4534   50.8927 O.2     1  ZINC000550952205   -0.5100
      2 C2         -7.2950    1.4516   51.3718 C.2     1  ZINC000550952205    0.5100
      3 N3         -5.9615    1.2628   51.3219 N.am    1  ZINC000550952205   -0.7000
      4 C4         -5.1033    2.2644   50.6840 C.3     1  ZINC000550952205    0.1200
      5 C5         -4.2691    2.9754   51.7514 C.3     1  ZINC000550952205   -0.0900
      6 H6         -3.9326    2.2525   52.4948 H       1  ZINC000550952205    0.1000
      7 C7         -3.0771    3.6307   51.1079 C.3     1  ZINC000550952205   -0.1300
      8 C8         -1.8367    3.6253   52.0217 C.3     1  ZINC000550952205   -0.1200
      9 C9         -2.1737    3.9548   53.4885 C.3     1  ZINC000550952205   -0.1300
     10 C10        -3.1709    5.0747   53.6126 C.3     1  ZINC000550952205   -0.1500
     11 C11        -4.5826    4.4635   53.7252 C.3     1  ZINC000550952205    0.3000
     12 F12        -4.5244    3.3392   54.5559 F       1  ZINC000550952205   -0.2000
     13 F13        -5.4404    5.4072   54.3004 F       1  ZINC000550952205   -0.2000
     14 C14        -5.1216    4.0634   52.4356 C.3     1  ZINC000550952205   -0.1700
     15 C15        -8.1697    0.4308   52.0220 C.2     1  ZINC000550952205    0.5100
     16 O16        -7.7196   -0.6590   52.3104 O.2     1  ZINC000550952205   -0.4900
     17 N17        -9.4589    0.7195   52.2886 N.am    1  ZINC000550952205   -0.6400
     18 C18       -10.2777   -0.2361   52.8973 C.ar    1  ZINC000550952205    0.1500
     19 C19       -10.7061   -1.3494   52.1760 C.ar    1  ZINC000550952205   -0.1200
     20 C20       -11.5033   -2.2879   52.7555 C.ar    1  ZINC000550952205   -0.0400
     21 C21       -11.9113   -2.1511   54.0981 C.ar    1  ZINC000550952205    0.0800
     22 N22       -12.6889   -2.9580   54.8457 N.2     1  ZINC000550952205   -0.4700
     23 C23       -12.9185   -2.6133   56.0558 C.2     1  ZINC000550952205    0.1200
     24 C24       -13.7653   -3.4069   57.0171 C.3     1  ZINC000550952205   -0.1100
     25 C25       -15.2236   -3.6613   56.6300 C.3     1  ZINC000550952205   -0.1500
     26 C26       -14.2082   -4.8047   56.5804 C.3     1  ZINC000550952205   -0.1500
     27 S27       -12.1454   -1.1430   56.4460 S.3     1  ZINC000550952205    0.1200
     28 C28       -11.4789   -1.0323   54.8198 C.ar    1  ZINC000550952205   -0.1700
     29 C29       -10.6592   -0.0812   54.2183 C.ar    1  ZINC000550952205   -0.0700
     30 H30        -5.5698    0.4640   51.7083 H       1  ZINC000550952205    0.4200
     31 H31        -4.4400    1.7738   49.9716 H       1  ZINC000550952205    0.0800
     32 H32        -5.7224    2.9935   50.1614 H       1  ZINC000550952205    0.0800
     33 H33        -2.8382    3.1006   50.1859 H       1  ZINC000550952205    0.0700
     34 H34        -3.3308    4.6622   50.8638 H       1  ZINC000550952205    0.0700
     35 H35        -1.3738    2.6393   51.9803 H       1  ZINC000550952205    0.0700
     36 H36        -1.1237    4.3617   51.6509 H       1  ZINC000550952205    0.0700
     37 H37        -2.5827    3.0640   53.9651 H       1  ZINC000550952205    0.0800
     38 H38        -1.2573    4.2397   54.0054 H       1  ZINC000550952205    0.0700
     39 H39        -2.9536    5.6613   54.5052 H       1  ZINC000550952205    0.0900
     40 H40        -3.1173    5.7122   52.7300 H       1  ZINC000550952205    0.1000
     41 H41        -5.1607    4.9359   51.7834 H       1  ZINC000550952205    0.1000
     42 H42        -6.1343    3.6859   52.5780 H       1  ZINC000550952205    0.1000
     43 H43        -9.8185    1.5904   52.0583 H       1  ZINC000550952205    0.4300
     44 H44       -10.4025   -1.4683   51.1464 H       1  ZINC000550952205    0.1400
     45 H45       -11.8265   -3.1441   52.1820 H       1  ZINC000550952205    0.1400
     46 H46       -13.5436   -3.2563   58.0737 H       1  ZINC000550952205    0.1300
     47 H47       -15.9616   -3.6780   57.4320 H       1  ZINC000550952205    0.1000
     48 H48       -15.5704   -3.2546   55.6801 H       1  ZINC000550952205    0.1100
     49 H49       -13.8871   -5.1505   55.5978 H       1  ZINC000550952205    0.1000
     50 H50       -14.2783   -5.5738   57.3498 H       1  ZINC000550952205    0.1100
     51 H51       -10.3239    0.7773   54.7811 H       1  ZINC000550952205    0.1400
@<TRIPOS>BOND
     1     1     2    2
     2     2     3   am
     3     2    15    1
     4     3     4    1
     5     3    30    1
     6     4     5    1
     7     4    31    1
     8     4    32    1
     9     5     6    1
    10     5    14    1
    11     5     7    1
    12     7     8    1
    13     7    33    1
    14     7    34    1
    15     8     9    1
    16     8    35    1
    17     8    36    1
    18     9    10    1
    19     9    37    1
    20     9    38    1
    21    10    11    1
    22    10    39    1
    23    10    40    1
    24    11    12    1
    25    11    13    1
    26    11    14    1
    27    14    41    1
    28    14    42    1
    29    15    16    2
    30    15    17   am
    31    17    18    1
    32    17    43    1
    33    18    29   ar
    34    18    19   ar
    35    19    20   ar
    36    19    44    1
    37    20    21   ar
    38    20    45    1
    39    21    28   ar
    40    21    22    1
    41    22    23    2
    42    23    24    1
    43    23    27    1
    44    24    26    1
    45    24    25    1
    46    24    46    1
    47    25    26    1
    48    25    47    1
    49    25    48    1
    50    26    49    1
    51    26    50    1
    52    27    28    1
    53    28    29   ar
    54    29    51    1
@<TRIPOS>SUBSTRUCTURE
     1 ZINC000550952205        1 TEMP              0 ****  ****    0 ROOT


##########                                Name:    ZINC000433961694
##########                DOCK_Rotatable_Bonds:                   7
##########                         Heavy_Atoms:                  29
##########                    Molecular_Weight:             413.472
##########                DOCK_Rotatable_Bonds:                   7
##########                       Formal_Charge:          0.00999992
##########                     HBond_Acceptors:                   8
##########                        HBond_Donors:                   0
##########                         Heavy_Atoms:                  29
##########                          Grid_Score:          -34.022846
##########                     Grid_vdw_energy:          -33.547981
##########                      Grid_es_energy:           -0.474863
##########           Internal_energy_repulsive:           11.829391

@<TRIPOS>MOLECULE
ZINC000433961694
 49 52 1 0 0
SMALL
USER_CHARGES


@<TRIPOS>ATOM
      1 C1        -11.4231   -2.3215   53.0740 C.3     1  ZINC000433961694   -0.1000
      2 C2        -10.6319   -1.0504   52.9025 C.2     1  ZINC000433961694    0.1600
      3 C3        -11.1380    0.1763   53.1840 C.2     1  ZINC000433961694   -0.3000
      4 C4        -12.4876    0.4614   53.6828 C.2     1  ZINC000433961694    0.6200
      5 O5        -13.3823    0.7242   52.9010 O.2     1  ZINC000433961694   -0.5100
      6 N6        -12.7367    0.4324   55.0070 N.am    1  ZINC000433961694   -0.6100
      7 C7        -14.0405    0.6976   55.6421 C.3     1  ZINC000433961694    0.1100
      8 C8        -13.9758   -0.0390   57.0033 C.3     1  ZINC000433961694   -0.1300
      9 C9        -12.4954    0.1866   57.4095 C.3     1  ZINC000433961694    0.0800
     10 H10       -12.3685    1.1624   57.8784 H       1  ZINC000433961694    0.1000
     11 O11       -12.0461   -0.8532   58.2808 O.3     1  ZINC000433961694   -0.2900
     12 C12       -10.7917   -0.7350   58.7858 C.ar    1  ZINC000433961694    0.1700
     13 C13       -10.0810    0.4561   58.6607 C.ar    1  ZINC000433961694   -0.2600
     14 C14        -8.8084    0.5363   59.1876 C.ar    1  ZINC000433961694    0.1400
     15 N15        -8.2650   -0.4967   59.8031 N.ar    1  ZINC000433961694   -0.5100
     16 C16        -8.9066   -1.6416   59.9416 C.ar    1  ZINC000433961694    0.1400
     17 C17       -10.1851   -1.7997   59.4473 C.ar    1  ZINC000433961694   -0.2000
     18 C18       -11.7548    0.1245   56.0571 C.3     1  ZINC000433961694    0.0600
     19 S19        -9.8832    1.3658   52.8436 S.3     1  ZINC000433961694    0.2100
     20 C20        -8.8176    0.1182   52.3637 C.2     1  ZINC000433961694    0.0400
     21 C21        -7.4043    0.3306   51.8858 C.3     1  ZINC000433961694    0.1400
     22 O22        -7.0053    1.6749   52.1613 O.3     1  ZINC000433961694   -0.3000
     23 C23        -5.7986    2.0721   51.6771 C.ar    1  ZINC000433961694    0.1200
     24 C24        -5.5597    2.0571   50.3109 C.ar    1  ZINC000433961694   -0.1800
     25 C25        -4.3330    2.4609   49.8203 C.ar    1  ZINC000433961694   -0.1100
     26 C26        -3.3421    2.8799   50.6918 C.ar    1  ZINC000433961694    0.0600
     27 F27        -2.1427    3.2742   50.2108 F       1  ZINC000433961694   -0.1400
     28 C28        -3.5794    2.8958   52.0558 C.ar    1  ZINC000433961694   -0.1100
     29 C29        -4.8071    2.4980   52.5486 C.ar    1  ZINC000433961694   -0.1200
     30 N30        -9.3946   -1.0351   52.4742 N.2     1  ZINC000433961694   -0.4500
     31 H31       -11.2774   -2.7068   54.0832 H       1  ZINC000433961694    0.0800
     32 H32       -12.4812   -2.1153   52.9130 H       1  ZINC000433961694    0.1000
     33 H33       -11.0829   -3.0617   52.3498 H       1  ZINC000433961694    0.0800
     34 H34       -14.1766    1.7681   55.7961 H       1  ZINC000433961694    0.0800
     35 H35       -14.8488    0.2956   55.0313 H       1  ZINC000433961694    0.1000
     36 H36       -14.6530    0.4158   57.7262 H       1  ZINC000433961694    0.1000
     37 H37       -14.1906   -1.1009   56.8835 H       1  ZINC000433961694    0.1000
     38 H38       -10.5198    1.3052   58.1578 H       1  ZINC000433961694    0.1400
     39 H39        -8.2498    1.4560   59.0949 H       1  ZINC000433961694    0.1600
     40 H40        -8.4268   -2.4635   60.4520 H       1  ZINC000433961694    0.1700
     41 H41       -10.7048   -2.7392   59.5642 H       1  ZINC000433961694    0.1400
     42 H42       -11.3429   -0.8732   55.9054 H       1  ZINC000433961694    0.0900
     43 H43       -10.9550    0.8649   56.0382 H       1  ZINC000433961694    0.0800
     44 H44        -6.7380   -0.3594   52.4036 H       1  ZINC000433961694    0.0900
     45 H45        -7.3524    0.1490   50.8124 H       1  ZINC000433961694    0.1000
     46 H46        -6.3322    1.7295   49.6310 H       1  ZINC000433961694    0.1400
     47 H47        -4.1467    2.4493   48.7566 H       1  ZINC000433961694    0.1400
     48 H48        -2.8056    3.2232   52.7344 H       1  ZINC000433961694    0.1500
     49 H49        -4.9920    2.5105   53.6126 H       1  ZINC000433961694    0.1400
@<TRIPOS>BOND
     1     1     2    1
     2     1    31    1
     3     1    32    1
     4     1    33    1
     5     2    30    1
     6     2     3    2
     7     3     4    1
     8     3    19    1
     9     4     5    2
    10     4     6   am
    11     6    18    1
    12     6     7    1
    13     7     8    1
    14     7    34    1
    15     7    35    1
    16     8     9    1
    17     8    36    1
    18     8    37    1
    19     9    10    1
    20     9    11    1
    21     9    18    1
    22    11    12    1
    23    12    17   ar
    24    12    13   ar
    25    13    14   ar
    26    13    38    1
    27    14    15   ar
    28    14    39    1
    29    15    16   ar
    30    16    17   ar
    31    16    40    1
    32    17    41    1
    33    18    42    1
    34    18    43    1
    35    19    20    1
    36    20    21    1
    37    20    30    2
    38    21    22    1
    39    21    44    1
    40    21    45    1
    41    22    23    1
    42    23    29   ar
    43    23    24   ar
    44    24    25   ar
    45    24    46    1
    46    25    26   ar
    47    25    47    1
    48    26    27    1
    49    26    28   ar
    50    28    29   ar
    51    28    48    1
    52    29    49    1
@<TRIPOS>SUBSTRUCTURE
     1 ZINC000433961694        1 TEMP              0 ****  ****    0 ROOT


##########                                Name:    ZINC000523153175
##########                DOCK_Rotatable_Bonds:                   9
##########                         Heavy_Atoms:                  30
##########                    Molecular_Weight:             413.603
##########                DOCK_Rotatable_Bonds:                   9
##########                       Formal_Charge:           0.0499987
##########                     HBond_Acceptors:                   5
##########                        HBond_Donors:                   1
##########                         Heavy_Atoms:                  30
##########                          Grid_Score:          -34.003487
##########                     Grid_vdw_energy:          -33.973022
##########                      Grid_es_energy:           -0.030463
##########           Internal_energy_repulsive:           33.902508

@<TRIPOS>MOLECULE
ZINC000523153175
 69 71 1 0 0
SMALL
USER_CHARGES


@<TRIPOS>ATOM
      1 C1         -7.4886    1.3716   65.1561 C.3     1  ZINC000523153175   -0.1500
      2 C2         -8.8265    0.6959   64.8482 C.3     1  ZINC000523153175   -0.0600
      3 C3         -9.9575    1.4714   65.5268 C.3     1  ZINC000523153175   -0.1400
      4 C4         -9.0508    0.6815   63.3581 C.ar    1  ZINC000523153175   -0.0800
      5 C5         -8.6067   -0.3875   62.6026 C.ar    1  ZINC000523153175   -0.1100
      6 C6         -8.8125   -0.4008   61.2357 C.ar    1  ZINC000523153175   -0.1100
      7 C7         -9.4627    0.6549   60.6244 C.ar    1  ZINC000523153175   -0.0800
      8 C8         -9.6866    0.6407   59.1341 C.3     1  ZINC000523153175   -0.0300
      9 H9        -10.3527    1.4585   58.8590 H       1  ZINC000523153175    0.0800
     10 C10        -8.3465    0.8108   58.4156 C.3     1  ZINC000523153175   -0.1500
     11 C11       -10.3187   -0.6914   58.7261 C.3     1  ZINC000523153175   -0.1300
     12 C12       -10.9876   -0.5398   57.3842 C.2     1  ZINC000523153175    0.5200
     13 O13       -11.0231    0.5451   56.8434 O.2     1  ZINC000523153175   -0.5300
     14 N14       -11.5464   -1.6100   56.7851 N.am    1  ZINC000523153175   -0.6200
     15 C15       -11.5215   -2.9332   57.4270 C.3     1  ZINC000523153175    0.1100
     16 C16       -12.9471   -3.4949   57.4398 C.3     1  ZINC000523153175    0.0400
     17 N17       -13.4894   -3.4769   56.0746 N.3     1  ZINC000523153175   -0.5100
     18 C18       -14.7863   -4.1642   56.0143 C.3     1  ZINC000523153175    0.0600
     19 H19       -15.3483   -3.8045   55.1524 H       1  ZINC000523153175    0.1100
     20 C20       -14.5592   -5.6714   55.8822 C.3     1  ZINC000523153175   -0.1800
     21 C21       -15.5635   -3.8817   57.2742 C.2     1  ZINC000523153175    0.5200
     22 O22       -15.7391   -4.7627   58.0888 O.2     1  ZINC000523153175   -0.5200
     23 N23       -16.0635   -2.6498   57.4956 N.am    1  ZINC000523153175   -0.7200
     24 C24       -16.8175   -2.3747   58.7212 C.3     1  ZINC000523153175    0.1400
     25 C25       -15.8725   -1.8301   59.8121 C.3     1  ZINC000523153175   -0.1300
     26 C26       -16.0127   -0.2915   59.7027 C.3     1  ZINC000523153175   -0.1300
     27 C27       -17.5208   -0.1063   59.4020 C.3     1  ZINC000523153175   -0.1300
     28 C28       -17.8656   -1.2786   58.4604 C.3     1  ZINC000523153175   -0.1300
     29 C29       -13.5964   -2.1045   55.5618 C.3     1  ZINC000523153175    0.0400
     30 C30       -12.2028   -1.4846   55.4749 C.3     1  ZINC000523153175    0.1200
     31 C31        -9.9080    1.7233   61.3801 C.ar    1  ZINC000523153175   -0.1100
     32 C32        -9.7056    1.7347   62.7475 C.ar    1  ZINC000523153175   -0.1200
     33 H33        -7.3264    1.3820   66.2339 H       1  ZINC000523153175    0.0600
     34 H34        -6.6830    0.8191   64.6726 H       1  ZINC000523153175    0.0600
     35 H35        -7.5036    2.3949   64.7810 H       1  ZINC000523153175    0.0600
     36 H36        -8.8115   -0.3274   65.2233 H       1  ZINC000523153175    0.0800
     37 H37        -9.9724    2.4947   65.1517 H       1  ZINC000523153175    0.0600
     38 H38       -10.9106    0.9901   65.3074 H       1  ZINC000523153175    0.0600
     39 H39        -9.7952    1.4818   66.6046 H       1  ZINC000523153175    0.0600
     40 H40        -8.0988   -1.2124   63.0802 H       1  ZINC000523153175    0.1200
     41 H41        -8.4649   -1.2357   60.6453 H       1  ZINC000523153175    0.1200
     42 H42        -8.5084    0.8005   57.3377 H       1  ZINC000523153175    0.0800
     43 H43        -7.8962    1.7598   58.7063 H       1  ZINC000523153175    0.0600
     44 H44        -7.6804   -0.0069   58.6907 H       1  ZINC000523153175    0.0500
     45 H45        -9.5447   -1.4563   58.6619 H       1  ZINC000523153175    0.0900
     46 H46       -11.0591   -0.9853   59.4700 H       1  ZINC000523153175    0.0900
     47 H47       -10.8697   -3.6010   56.8638 H       1  ZINC000523153175    0.0800
     48 H48       -11.1566   -2.8371   58.4496 H       1  ZINC000523153175    0.0900
     49 H49       -12.9310   -4.5196   57.8113 H       1  ZINC000523153175    0.0900
     50 H50       -13.5737   -2.8824   58.0880 H       1  ZINC000523153175    0.0400
     51 H51       -13.9972   -6.0311   56.7442 H       1  ZINC000523153175    0.0700
     52 H52       -15.5215   -6.1813   55.8375 H       1  ZINC000523153175    0.0700
     53 H53       -13.9970   -5.8757   54.9709 H       1  ZINC000523153175    0.0700
     54 H54       -15.9242   -1.9454   56.8434 H       1  ZINC000523153175    0.4000
     55 H55       -17.3071   -3.2839   59.0701 H       1  ZINC000523153175    0.0900
     56 H56       -16.1892   -2.1731   60.7971 H       1  ZINC000523153175    0.0700
     57 H57       -14.8449   -2.1347   59.6133 H       1  ZINC000523153175    0.0700
     58 H58       -15.7446    0.1886   60.6438 H       1  ZINC000523153175    0.0700
     59 H59       -15.4052    0.0945   58.8841 H       1  ZINC000523153175    0.0700
     60 H60       -18.1037   -0.1707   60.3207 H       1  ZINC000523153175    0.0700
     61 H61       -17.6961    0.8473   58.9038 H       1  ZINC000523153175    0.0700
     62 H62       -17.8132   -0.9513   57.4220 H       1  ZINC000523153175    0.0700
     63 H63       -18.8636   -1.6556   58.6836 H       1  ZINC000523153175    0.0800
     64 H64       -14.0512   -2.1209   54.5713 H       1  ZINC000523153175    0.1000
     65 H65       -14.2140   -1.5114   56.2363 H       1  ZINC000523153175    0.0400
     66 H66       -12.2865   -0.4318   55.2049 H       1  ZINC000523153175    0.1000
     67 H67       -11.6135   -2.0120   54.7248 H       1  ZINC000523153175    0.0800
     68 H68       -10.4163    2.5479   60.9025 H       1  ZINC000523153175    0.1200
     69 H69       -10.0535    2.5694   63.3379 H       1  ZINC000523153175    0.1200
@<TRIPOS>BOND
     1     1     2    1
     2     1    33    1
     3     1    34    1
     4     1    35    1
     5     2     3    1
     6     2     4    1
     7     2    36    1
     8     3    37    1
     9     3    38    1
    10     3    39    1
    11     4    32   ar
    12     4     5   ar
    13     5     6   ar
    14     5    40    1
    15     6     7   ar
    16     6    41    1
    17     7     8    1
    18     7    31   ar
    19     8     9    1
    20     8    10    1
    21     8    11    1
    22    10    42    1
    23    10    43    1
    24    10    44    1
    25    11    12    1
    26    11    45    1
    27    11    46    1
    28    12    13    2
    29    12    14   am
    30    14    30    1
    31    14    15    1
    32    15    16    1
    33    15    47    1
    34    15    48    1
    35    16    17    1
    36    16    49    1
    37    16    50    1
    38    17    18    1
    39    17    29    1
    40    18    19    1
    41    18    20    1
    42    18    21    1
    43    20    51    1
    44    20    52    1
    45    20    53    1
    46    21    22    2
    47    21    23   am
    48    23    24    1
    49    23    54    1
    50    24    28    1
    51    24    25    1
    52    24    55    1
    53    25    26    1
    54    25    56    1
    55    25    57    1
    56    26    27    1
    57    26    58    1
    58    26    59    1
    59    27    28    1
    60    27    60    1
    61    27    61    1
    62    28    62    1
    63    28    63    1
    64    29    30    1
    65    29    64    1
    66    29    65    1
    67    30    66    1
    68    30    67    1
    69    31    32   ar
    70    31    68    1
    71    32    69    1
@<TRIPOS>SUBSTRUCTURE
     1 ZINC000523153175        1 TEMP              0 ****  ****    0 ROOT


##########                                Name:    ZINC001573443776
##########                DOCK_Rotatable_Bonds:                   8
##########                         Heavy_Atoms:                  28
##########                    Molecular_Weight:             386.457
##########                DOCK_Rotatable_Bonds:                   8
##########                       Formal_Charge:          0.00999954
##########                     HBond_Acceptors:                  10
##########                        HBond_Donors:                   3
##########                         Heavy_Atoms:                  28
##########                          Grid_Score:          -33.972973
##########                     Grid_vdw_energy:          -33.121910
##########                      Grid_es_energy:           -0.851064
##########           Internal_energy_repulsive:           29.512434

@<TRIPOS>MOLECULE
ZINC001573443776
 54 56 1 0 0
SMALL
USER_CHARGES


@<TRIPOS>ATOM
      1 C1          0.5499    3.4602   54.3622 C.3     1  ZINC001573443776   -0.1800
      2 C2          0.1992    3.0914   55.7807 C.2     1  ZINC001573443776    0.5100
      3 O3          1.0360    2.5898   56.5013 O.2     1  ZINC001573443776   -0.5400
      4 N4         -1.0441    3.3189   56.2484 N.am    1  ZINC001573443776   -0.6100
      5 C5         -1.4009    2.9648   57.6290 C.3     1  ZINC001573443776    0.1100
      6 C6         -2.6487    2.0762   57.6033 C.3     1  ZINC001573443776   -0.1300
      7 C7         -3.7608    2.7876   56.8293 C.3     1  ZINC001573443776   -0.1000
      8 C8         -3.3084    3.0267   55.3870 C.3     1  ZINC001573443776   -0.1200
      9 H9         -3.0658    2.0728   54.9188 H       1  ZINC001573443776    0.1000
     10 C10        -4.4167    3.6975   54.6169 C.2     1  ZINC001573443776    0.5200
     11 O11        -5.1608    4.4740   55.1774 O.2     1  ZINC001573443776   -0.5300
     12 N12        -4.5808    3.4344   53.3053 N.am    1  ZINC001573443776   -0.7300
     13 C13        -5.6570    4.0878   52.5563 C.3     1  ZINC001573443776    0.1100
     14 C14        -6.0844    3.1922   51.3917 C.3     1  ZINC001573443776    0.1400
     15 H15        -7.0539    3.5208   51.0174 H       1  ZINC001573443776    0.0900
     16 C16        -5.0472    3.2838   50.2706 C.3     1  ZINC001573443776   -0.1700
     17 N17        -6.1836    1.8053   51.8530 N.pl3   1  ZINC001573443776   -0.7200
     18 C18        -7.4308    1.2198   52.0303 C.ar    1  ZINC001573443776    0.4300
     19 C19        -7.5682   -0.1587   51.8949 C.ar    1  ZINC001573443776   -0.2500
     20 C20        -8.8115   -0.7331   52.0731 C.ar    1  ZINC001573443776    0.0100
     21 C21        -9.8910    0.1003   52.3851 C.ar    1  ZINC001573443776   -0.1400
     22 C22       -11.2469   -0.4688   52.5869 C.2     1  ZINC001573443776    0.2400
     23 N23       -11.7034   -1.0473   53.6800 N.2     1  ZINC001573443776   -0.3000
     24 N24       -12.9212   -1.4052   53.4576 N.pl3   1  ZINC001573443776   -0.2300
     25 N25       -13.2509   -1.0719   52.2586 N.2     1  ZINC001573443776   -0.0500
     26 N26       -12.2476   -0.4892   51.6950 N.2     1  ZINC001573443776   -0.2700
     27 C27        -9.6761    1.4701   52.5043 C.ar    1  ZINC001573443776    0.2300
     28 C28       -10.8300    2.3794   52.8399 C.3     1  ZINC001573443776   -0.1200
     29 N29        -8.4732    1.9798   52.3314 N.ar    1  ZINC001573443776   -0.5400
     30 C30        -2.0667    3.9313   55.3893 C.3     1  ZINC001573443776    0.1200
     31 H31         0.4239    2.5894   53.7187 H       1  ZINC001573443776    0.0900
     32 H32        -0.1063    4.2612   54.0222 H       1  ZINC001573443776    0.0800
     33 H33         1.5858    3.7965   54.3198 H       1  ZINC001573443776    0.1000
     34 H34        -0.5762    2.4232   58.0921 H       1  ZINC001573443776    0.1000
     35 H35        -1.6099    3.8717   58.1965 H       1  ZINC001573443776    0.0700
     36 H36        -2.4122    1.1311   57.1143 H       1  ZINC001573443776    0.0700
     37 H37        -2.9803    1.8853   58.6239 H       1  ZINC001573443776    0.0800
     38 H38        -4.6577    2.1681   56.8306 H       1  ZINC001573443776    0.0800
     39 H39        -3.9796    3.7438   57.3046 H       1  ZINC001573443776    0.0700
     40 H40        -3.9864    2.8124   52.8572 H       1  ZINC001573443776    0.4000
     41 H41        -6.5081    4.2569   53.2159 H       1  ZINC001573443776    0.0900
     42 H42        -5.3022    5.0429   52.1689 H       1  ZINC001573443776    0.0800
     43 H43        -4.9734    4.3157   49.9274 H       1  ZINC001573443776    0.0700
     44 H44        -4.0777    2.9551   50.6448 H       1  ZINC001573443776    0.0700
     45 H45        -5.3517    2.6459   49.4409 H       1  ZINC001573443776    0.0700
     46 H46        -5.3784    1.2958   52.0348 H       1  ZINC001573443776    0.4100
     47 H47        -6.7128   -0.7719   51.6529 H       1  ZINC001573443776    0.1400
     48 H48        -8.9471   -1.7999   51.9738 H       1  ZINC001573443776    0.1400
     49 H49       -13.4989   -1.8553   54.0937 H       1  ZINC001573443776    0.4800
     50 H50       -10.9100    2.4806   53.9223 H       1  ZINC001573443776    0.0800
     51 H51       -10.6612    3.3600   52.3949 H       1  ZINC001573443776    0.0800
     52 H52       -11.7534    1.9555   52.4454 H       1  ZINC001573443776    0.1100
     53 H53        -2.3325    4.9160   55.7737 H       1  ZINC001573443776    0.0800
     54 H54        -1.6809    4.0250   54.3741 H       1  ZINC001573443776    0.0900
@<TRIPOS>BOND
     1     1     2    1
     2     1    31    1
     3     1    32    1
     4     1    33    1
     5     2     3    2
     6     2     4   am
     7     4    30    1
     8     4     5    1
     9     5     6    1
    10     5    34    1
    11     5    35    1
    12     6     7    1
    13     6    36    1
    14     6    37    1
    15     7     8    1
    16     7    38    1
    17     7    39    1
    18     8     9    1
    19     8    10    1
    20     8    30    1
    21    10    11    2
    22    10    12   am
    23    12    13    1
    24    12    40    1
    25    13    14    1
    26    13    41    1
    27    13    42    1
    28    14    15    1
    29    14    16    1
    30    14    17    1
    31    16    43    1
    32    16    44    1
    33    16    45    1
    34    17    18    1
    35    17    46    1
    36    18    29   ar
    37    18    19   ar
    38    19    20   ar
    39    19    47    1
    40    20    21   ar
    41    20    48    1
    42    21    22    1
    43    21    27   ar
    44    22    26    1
    45    22    23    2
    46    23    24    1
    47    24    25    1
    48    24    49    1
    49    25    26    2
    50    27    28    1
    51    27    29   ar
    52    28    50    1
    53    28    51    1
    54    28    52    1
    55    30    53    1
    56    30    54    1
@<TRIPOS>SUBSTRUCTURE
     1 ZINC001573443776        1 TEMP              0 ****  ****    0 ROOT


##########                                Name:    ZINC001109848453
##########                DOCK_Rotatable_Bonds:                   8
##########                         Heavy_Atoms:                  24
##########                    Molecular_Weight:             328.337
##########                DOCK_Rotatable_Bonds:                   8
##########                       Formal_Charge:          0.00999966
##########                     HBond_Acceptors:                  11
##########                        HBond_Donors:                   2
##########                         Heavy_Atoms:                  24
##########                          Grid_Score:          -33.948795
##########                     Grid_vdw_energy:          -32.144215
##########                      Grid_es_energy:           -1.804582
##########           Internal_energy_repulsive:            5.049928

@<TRIPOS>MOLECULE
ZINC001109848453
 40 43 1 0 0
SMALL
USER_CHARGES


@<TRIPOS>ATOM
      1 O1        -12.3142   -1.1024   54.8341 O.2     1  ZINC001109848453   -0.5000
      2 C2        -12.1734   -2.1756   54.2870 C.2     1  ZINC001109848453    0.5000
      3 C3        -11.7463   -2.2349   52.8430 C.3     1  ZINC001109848453    0.1100
      4 N4        -10.8604   -1.1057   52.5490 N.pl3   1  ZINC001109848453   -0.3700
      5 C5        -11.2302    0.1488   52.2383 C.2     1  ZINC001109848453    0.2600
      6 N6        -10.1462    0.8564   52.0486 N.2     1  ZINC001109848453   -0.5400
      7 C7         -9.0701    0.0917   52.2286 C.2     1  ZINC001109848453    0.2000
      8 N8         -9.4561   -1.1173   52.5417 N.2     1  ZINC001109848453   -0.2900
      9 N9        -12.3934   -3.3154   54.9719 N.am    1  ZINC001109848453   -0.7300
     10 C10       -12.8086   -3.2577   56.3756 C.3     1  ZINC001109848453    0.1700
     11 H11       -13.5175   -2.4410   56.5117 H       1  ZINC001109848453    0.1000
     12 C12       -11.5830   -3.0220   57.2607 C.3     1  ZINC001109848453    0.1200
     13 N13       -12.0131   -2.5060   58.5627 N.pl3   1  ZINC001109848453   -0.6800
     14 C14       -11.0728   -2.0496   59.4717 C.2     1  ZINC001109848453    0.4900
     15 N15        -9.8089   -2.4095   59.3590 N.2     1  ZINC001109848453   -0.5300
     16 C16        -8.8899   -1.9780   60.2265 C.2     1  ZINC001109848453    0.1400
     17 C17        -9.2161   -1.1605   61.2489 C.2     1  ZINC001109848453   -0.0500
     18 N18       -10.5117   -0.7560   61.4133 N.pl3   1  ZINC001109848453   -0.1800
     19 N19       -11.1147   -0.0034   62.2638 N.2     1  ZINC001109848453   -0.1000
     20 N20       -12.3667    0.0550   61.9672 N.2     1  ZINC001109848453   -0.0400
     21 N21       -12.6055   -0.6576   60.9182 N.2     1  ZINC001109848453   -0.2600
     22 C22       -11.4583   -1.1884   60.5259 C.2     1  ZINC001109848453    0.1000
     23 C23       -13.4726   -4.5798   56.7658 C.3     1  ZINC001109848453   -0.1800
     24 C24       -14.9139   -4.5228   57.2763 C.3     1  ZINC001109848453   -0.1700
     25 C25       -14.6171   -5.0828   55.8837 C.3     1  ZINC001109848453   -0.1700
     26 H26       -11.2166   -3.1697   52.6588 H       1  ZINC001109848453    0.1300
     27 H27       -12.6259   -2.1832   52.2014 H       1  ZINC001109848453    0.1200
     28 H28       -12.2450    0.5096   52.1584 H       1  ZINC001109848453    0.2200
     29 H29        -8.0450    0.4187   52.1350 H       1  ZINC001109848453    0.2200
     30 H30       -12.2769   -4.1737   54.5353 H       1  ZINC001109848453    0.4000
     31 H31       -11.0496   -3.9621   57.4006 H       1  ZINC001109848453    0.1000
     32 H32       -10.9235   -2.2977   56.7827 H       1  ZINC001109848453    0.0900
     33 H33       -12.9562   -2.4841   58.7883 H       1  ZINC001109848453    0.4200
     34 H34        -7.8630   -2.2906   60.1073 H       1  ZINC001109848453    0.2000
     35 H35        -8.4543   -0.8260   61.9375 H       1  ZINC001109848453    0.1900
     36 H36       -12.8114   -5.3260   57.2064 H       1  ZINC001109848453    0.1100
     37 H37       -15.2010   -5.2315   58.0530 H       1  ZINC001109848453    0.1000
     38 H38       -15.3889   -3.5435   57.3341 H       1  ZINC001109848453    0.1000
     39 H39       -14.8969   -4.4719   55.0254 H       1  ZINC001109848453    0.1200
     40 H40       -14.7091   -6.1599   55.7443 H       1  ZINC001109848453    0.0900
@<TRIPOS>BOND
     1     1     2    2
     2     2     3    1
     3     2     9   am
     4     3     4    1
     5     3    26    1
     6     3    27    1
     7     4     8    1
     8     4     5    1
     9     5     6    2
    10     5    28    1
    11     6     7    1
    12     7     8    2
    13     7    29    1
    14     9    10    1
    15     9    30    1
    16    10    11    1
    17    10    12    1
    18    10    23    1
    19    12    13    1
    20    12    31    1
    21    12    32    1
    22    13    14    1
    23    13    33    1
    24    14    22    1
    25    14    15    2
    26    15    16    1
    27    16    17    2
    28    16    34    1
    29    17    18    1
    30    17    35    1
    31    18    22    1
    32    18    19    1
    33    19    20    2
    34    20    21    1
    35    21    22    2
    36    23    25    1
    37    23    24    1
    38    23    36    1
    39    24    25    1
    40    24    37    1
    41    24    38    1
    42    25    39    1
    43    25    40    1
@<TRIPOS>SUBSTRUCTURE
     1 ZINC001109848453        1 TEMP              0 ****  ****    0 ROOT


##########                                Name:    ZINC000538774026
##########                DOCK_Rotatable_Bonds:                  10
##########                         Heavy_Atoms:                  29
##########                    Molecular_Weight:             414.496
##########                DOCK_Rotatable_Bonds:                  10
##########                       Formal_Charge:            0.049999
##########                     HBond_Acceptors:                   9
##########                        HBond_Donors:                   2
##########                         Heavy_Atoms:                  29
##########                          Grid_Score:          -33.866543
##########                     Grid_vdw_energy:          -32.518070
##########                      Grid_es_energy:           -1.348471
##########           Internal_energy_repulsive:           27.627474

@<TRIPOS>MOLECULE
ZINC000538774026
 61 62 1 0 0
SMALL
USER_CHARGES


@<TRIPOS>ATOM
      1 C1        -11.4892    0.6345   62.0973 C.3     1  ZINC000538774026   -0.1500
      2 C2        -11.0688    1.5023   60.9093 C.3     1  ZINC000538774026   -0.1100
      3 C3        -11.9708    2.7357   60.8341 C.3     1  ZINC000538774026   -0.1400
      4 C4         -9.6150    1.9438   61.0896 C.3     1  ZINC000538774026    0.1400
      5 N5         -9.0807    2.4017   59.8047 N.pl3   1  ZINC000538774026   -0.3400
      6 N6         -8.9359    3.7348   59.3999 N.2     1  ZINC000538774026   -0.2500
      7 C7         -8.4258    3.7467   58.1951 C.2     1  ZINC000538774026    0.0500
      8 C8         -8.2266    2.4199   57.7871 C.2     1  ZINC000538774026    0.0800
      9 N9         -7.6941    2.0032   56.5516 N.am    1  ZINC000538774026   -0.6600
     10 C10        -8.4554    2.0480   55.4402 C.2     1  ZINC000538774026    0.7100
     11 O11        -9.6013    2.4497   55.5040 O.2     1  ZINC000538774026   -0.5700
     12 N12        -7.9464    1.6477   54.2582 N.am    1  ZINC000538774026   -0.7300
     13 C13        -8.7744    1.6947   53.0506 C.3     1  ZINC000538774026    0.1600
     14 C14        -8.5755    3.0393   52.3479 C.3     1  ZINC000538774026   -0.1300
     15 C15        -7.1034    3.2009   51.9636 C.3     1  ZINC000538774026   -0.1000
     16 C16        -6.6950    2.0674   51.0207 C.3     1  ZINC000538774026   -0.0800
     17 C17        -5.2450    2.2267   50.6421 C.2     1  ZINC000538774026    0.4700
     18 O18        -4.9294    2.3035   49.4783 O.2     1  ZINC000538774026   -0.5000
     19 O19        -4.3042    2.2833   51.5978 O.3     1  ZINC000538774026   -0.3500
     20 C20        -3.3990    3.4182   51.5652 C.3     1  ZINC000538774026    0.1200
     21 C21        -4.1533    4.6586   51.0821 C.3     1  ZINC000538774026   -0.1800
     22 C22        -2.8478    3.6714   52.9699 C.3     1  ZINC000538774026   -0.1400
     23 C23        -2.2419    3.1204   50.6094 C.3     1  ZINC000538774026   -0.1800
     24 C24        -6.8939    0.7229   51.7233 C.3     1  ZINC000538774026   -0.1100
     25 C25        -8.3660    0.5612   52.1076 C.3     1  ZINC000538774026   -0.1300
     26 C26        -8.6325    1.6087   58.7968 C.2     1  ZINC000538774026   -0.0500
     27 C27        -8.6002    0.1020   58.7963 C.3     1  ZINC000538774026    0.3500
     28 F28        -8.2507   -0.3573   60.0707 F       1  ZINC000538774026   -0.1900
     29 F29        -9.8636   -0.3913   58.4530 F       1  ZINC000538774026   -0.1900
     30 H30       -12.5249    0.3200   61.9689 H       1  ZINC000538774026    0.0600
     31 H31       -10.8465   -0.2442   62.1508 H       1  ZINC000538774026    0.0600
     32 H32       -11.3957    1.2097   63.0185 H       1  ZINC000538774026    0.0600
     33 H33       -11.1623    0.9271   59.9882 H       1  ZINC000538774026    0.0800
     34 H34       -11.8773    3.3109   61.7553 H       1  ZINC000538774026    0.0600
     35 H35       -11.6712    3.3540   59.9879 H       1  ZINC000538774026    0.0600
     36 H36       -13.0065    2.4212   60.7058 H       1  ZINC000538774026    0.0600
     37 H37        -9.5697    2.7581   61.8128 H       1  ZINC000538774026    0.1000
     38 H38        -9.0222    1.1035   61.4509 H       1  ZINC000538774026    0.1000
     39 H39        -8.1976    4.6279   57.6139 H       1  ZINC000538774026    0.2100
     40 H40        -6.7797    1.6839   56.5004 H       1  ZINC000538774026    0.4100
     41 H41        -7.0319    1.3284   54.2071 H       1  ZINC000538774026    0.4000
     42 H42        -9.8231    1.5795   53.3243 H       1  ZINC000538774026    0.1000
     43 H43        -9.1915    3.0743   51.4494 H       1  ZINC000538774026    0.0800
     44 H44        -8.8664    3.8468   53.0196 H       1  ZINC000538774026    0.0800
     45 H45        -6.9617    4.1588   51.4630 H       1  ZINC000538774026    0.0700
     46 H46        -6.4873    3.1659   52.8621 H       1  ZINC000538774026    0.0700
     47 H47        -7.3110    2.1025   50.1222 H       1  ZINC000538774026    0.1100
     48 H48        -4.9776    4.8706   51.7630 H       1  ZINC000538774026    0.0600
     49 H49        -3.4738    5.5104   51.0576 H       1  ZINC000538774026    0.0700
     50 H50        -4.5459    4.4781   50.0814 H       1  ZINC000538774026    0.0800
     51 H51        -2.3105    2.7878   53.3141 H       1  ZINC000538774026    0.0700
     52 H52        -2.1684    4.5233   52.9455 H       1  ZINC000538774026    0.0800
     53 H53        -3.6722    3.8835   53.6509 H       1  ZINC000538774026    0.0700
     54 H54        -2.6345    2.9400   49.6088 H       1  ZINC000538774026    0.0800
     55 H55        -1.5624    3.9723   50.5850 H       1  ZINC000538774026    0.0700
     56 H56        -1.7045    2.2367   50.9537 H       1  ZINC000538774026    0.0600
     57 H57        -6.6029   -0.0846   51.0516 H       1  ZINC000538774026    0.0800
     58 H58        -6.2778    0.6879   52.6218 H       1  ZINC000538774026    0.0600
     59 H59        -8.5076   -0.3967   52.6082 H       1  ZINC000538774026    0.0800
     60 H60        -8.9820    0.5963   51.2091 H       1  ZINC000538774026    0.0900
     61 H61        -7.8650   -0.2454   58.0705 H       1  ZINC000538774026    0.1300
@<TRIPOS>BOND
     1     1     2    1
     2     1    30    1
     3     1    31    1
     4     1    32    1
     5     2     3    1
     6     2     4    1
     7     2    33    1
     8     3    34    1
     9     3    35    1
    10     3    36    1
    11     4     5    1
    12     4    37    1
    13     4    38    1
    14     5    26    1
    15     5     6    1
    16     6     7    2
    17     7     8    1
    18     7    39    1
    19     8     9    1
    20     8    26    2
    21     9    10   am
    22     9    40    1
    23    10    11    2
    24    10    12   am
    25    12    13    1
    26    12    41    1
    27    13    25    1
    28    13    14    1
    29    13    42    1
    30    14    15    1
    31    14    43    1
    32    14    44    1
    33    15    16    1
    34    15    45    1
    35    15    46    1
    36    16    17    1
    37    16    24    1
    38    16    47    1
    39    17    18    2
    40    17    19    1
    41    19    20    1
    42    20    21    1
    43    20    22    1
    44    20    23    1
    45    21    48    1
    46    21    49    1
    47    21    50    1
    48    22    51    1
    49    22    52    1
    50    22    53    1
    51    23    54    1
    52    23    55    1
    53    23    56    1
    54    24    25    1
    55    24    57    1
    56    24    58    1
    57    25    59    1
    58    25    60    1
    59    26    27    1
    60    27    28    1
    61    27    29    1
    62    27    61    1
@<TRIPOS>SUBSTRUCTURE
     1 ZINC000538774026        1 TEMP              0 ****  ****    0 ROOT


##########                                Name:    ZINC000263872566
##########                DOCK_Rotatable_Bonds:                   9
##########                         Heavy_Atoms:                  26
##########                    Molecular_Weight:             362.469
##########                DOCK_Rotatable_Bonds:                   9
##########                       Formal_Charge:           0.0300001
##########                     HBond_Acceptors:                   6
##########                        HBond_Donors:                   2
##########                         Heavy_Atoms:                  26
##########                          Grid_Score:          -33.802708
##########                     Grid_vdw_energy:          -32.357224
##########                      Grid_es_energy:           -1.445485
##########           Internal_energy_repulsive:           22.380581

@<TRIPOS>MOLECULE
ZINC000263872566
 56 57 1 0 0
SMALL
USER_CHARGES


@<TRIPOS>ATOM
      1 C1         -6.9906    3.5480   51.2784 C.3     1  ZINC000263872566   -0.1800
      2 C2         -6.6431    2.3698   52.1905 C.3     1  ZINC000263872566    0.1400
      3 H3         -5.7940    1.8269   51.7751 H       1  ZINC000263872566    0.0700
      4 O4         -6.3066    2.8573   53.4909 O.3     1  ZINC000263872566   -0.5600
      5 C5         -7.8293    1.4459   52.2917 C.ar    1  ZINC000263872566   -0.0800
      6 C6         -9.0646    1.9450   52.6603 C.ar    1  ZINC000263872566   -0.0900
      7 C7        -10.1527    1.0976   52.7533 C.ar    1  ZINC000263872566   -0.1000
      8 C8        -10.0057   -0.2489   52.4770 C.ar    1  ZINC000263872566   -0.1100
      9 C9        -11.1919   -1.1729   52.5787 C.3     1  ZINC000263872566    0.1800
     10 N10       -11.6899   -1.1785   53.9564 N.am    1  ZINC000263872566   -0.7400
     11 C11       -11.5581   -2.2840   54.7160 C.2     1  ZINC000263872566    0.7100
     12 O12       -11.0260   -3.2766   54.2578 O.2     1  ZINC000263872566   -0.5900
     13 N13       -12.0163   -2.2892   55.9836 N.am    1  ZINC000263872566   -0.6300
     14 C14       -11.8746   -3.4846   56.8259 C.3     1  ZINC000263872566    0.1100
     15 C15       -11.1810   -3.0876   58.1328 C.3     1  ZINC000263872566   -0.1200
     16 C16       -11.9565   -1.9438   58.7902 C.3     1  ZINC000263872566   -0.0800
     17 C17       -11.2963   -1.5733   60.0932 C.2     1  ZINC000263872566    0.4700
     18 O18       -11.0198   -2.4328   60.8962 O.2     1  ZINC000263872566   -0.5000
     19 O19       -11.0154   -0.2885   60.3618 O.3     1  ZINC000263872566   -0.3500
     20 C20        -9.6188    0.0520   60.5668 C.3     1  ZINC000263872566    0.1200
     21 C21        -9.2699   -0.0968   62.0490 C.3     1  ZINC000263872566   -0.1800
     22 C22        -8.7384   -0.8863   59.7389 C.3     1  ZINC000263872566   -0.1400
     23 C23        -9.3766    1.4976   60.1283 C.3     1  ZINC000263872566   -0.1800
     24 C24       -11.9644   -0.7292   57.8592 C.3     1  ZINC000263872566   -0.1300
     25 C25       -12.6615   -1.0974   56.5512 C.3     1  ZINC000263872566    0.1300
     26 C26        -8.7707   -0.7477   52.1069 C.ar    1  ZINC000263872566   -0.1000
     27 C27        -7.6834    0.1003   52.0105 C.ar    1  ZINC000263872566   -0.1100
     28 H28        -7.8395    4.0909   51.6937 H       1  ZINC000263872566    0.0700
     29 H29        -6.1325    4.2162   51.2051 H       1  ZINC000263872566    0.0600
     30 H30        -7.2472    3.1762   50.2864 H       1  ZINC000263872566    0.0700
     31 H31        -6.0809    2.1629   54.1251 H       1  ZINC000263872566    0.3800
     32 H32        -9.1794    2.9969   52.8762 H       1  ZINC000263872566    0.1300
     33 H33       -11.1177    1.4873   53.0420 H       1  ZINC000263872566    0.1300
     34 H34       -11.9796   -0.8279   51.9089 H       1  ZINC000263872566    0.0800
     35 H35       -10.8915   -2.1821   52.2968 H       1  ZINC000263872566    0.0800
     36 H36       -12.1144   -0.3866   54.3219 H       1  ZINC000263872566    0.4000
     37 H37       -12.8599   -3.8958   57.0454 H       1  ZINC000263872566    0.0800
     38 H38       -11.2733   -4.2297   56.3047 H       1  ZINC000263872566    0.0800
     39 H39       -11.1557   -3.9443   58.8061 H       1  ZINC000263872566    0.0900
     40 H40       -10.1628   -2.7616   57.9198 H       1  ZINC000263872566    0.0800
     41 H41       -12.9816   -2.2622   58.9801 H       1  ZINC000263872566    0.1100
     42 H42        -9.4424   -1.1267   62.3613 H       1  ZINC000263872566    0.0600
     43 H43        -8.2215    0.1588   62.2029 H       1  ZINC000263872566    0.0700
     44 H44        -9.8971    0.5717   62.6388 H       1  ZINC000263872566    0.0800
     45 H45        -8.9869   -0.7804   58.6830 H       1  ZINC000263872566    0.0700
     46 H46        -7.6900   -0.6308   59.8928 H       1  ZINC000263872566    0.0800
     47 H47        -8.9109   -1.9163   60.0513 H       1  ZINC000263872566    0.0700
     48 H48       -10.0038    2.1661   60.7182 H       1  ZINC000263872566    0.0800
     49 H49        -8.3283    1.7532   60.2822 H       1  ZINC000263872566    0.0700
     50 H50        -9.6252    1.6036   59.0724 H       1  ZINC000263872566    0.0600
     51 H51       -12.4969    0.0926   58.3379 H       1  ZINC000263872566    0.0900
     52 H52       -10.9390   -0.4254   57.6488 H       1  ZINC000263872566    0.0700
     53 H53       -12.5822   -0.2679   55.8487 H       1  ZINC000263872566    0.1000
     54 H54       -13.7117   -1.3153   56.7456 H       1  ZINC000263872566    0.0700
     55 H55        -8.6559   -1.7997   51.8909 H       1  ZINC000263872566    0.1300
     56 H56        -6.7186   -0.2894   51.7214 H       1  ZINC000263872566    0.1300
@<TRIPOS>BOND
     1     1     2    1
     2     1    28    1
     3     1    29    1
     4     1    30    1
     5     2     3    1
     6     2     4    1
     7     2     5    1
     8     4    31    1
     9     5    27   ar
    10     5     6   ar
    11     6     7   ar
    12     6    32    1
    13     7     8   ar
    14     7    33    1
    15     8     9    1
    16     8    26   ar
    17     9    10    1
    18     9    34    1
    19     9    35    1
    20    10    11   am
    21    10    36    1
    22    11    12    2
    23    11    13   am
    24    13    25    1
    25    13    14    1
    26    14    15    1
    27    14    37    1
    28    14    38    1
    29    15    16    1
    30    15    39    1
    31    15    40    1
    32    16    17    1
    33    16    24    1
    34    16    41    1
    35    17    18    2
    36    17    19    1
    37    19    20    1
    38    20    21    1
    39    20    22    1
    40    20    23    1
    41    21    42    1
    42    21    43    1
    43    21    44    1
    44    22    45    1
    45    22    46    1
    46    22    47    1
    47    23    48    1
    48    23    49    1
    49    23    50    1
    50    24    25    1
    51    24    51    1
    52    24    52    1
    53    25    53    1
    54    25    54    1
    55    26    27   ar
    56    26    55    1
    57    27    56    1
@<TRIPOS>SUBSTRUCTURE
     1 ZINC000263872566        1 TEMP              0 ****  ****    0 ROOT


##########                                Name:    ZINC000508782983
##########                DOCK_Rotatable_Bonds:                   9
##########                         Heavy_Atoms:                  27
##########                    Molecular_Weight:             373.458
##########                DOCK_Rotatable_Bonds:                   9
##########                       Formal_Charge:          -0.0200006
##########                     HBond_Acceptors:                   9
##########                        HBond_Donors:                   2
##########                         Heavy_Atoms:                  27
##########                          Grid_Score:          -33.788528
##########                     Grid_vdw_energy:          -31.732550
##########                      Grid_es_energy:           -2.055978
##########           Internal_energy_repulsive:           14.590225

@<TRIPOS>MOLECULE
ZINC000508782983
 54 56 1 0 0
SMALL
USER_CHARGES


@<TRIPOS>ATOM
      1 C1         -2.5103    1.8593   57.2601 C.3     1  ZINC000508782983   -0.1500
      2 C2         -2.3524    3.2809   56.7170 C.3     1  ZINC000508782983   -0.1100
      3 C3         -3.5816    4.1104   57.0942 C.3     1  ZINC000508782983   -0.1500
      4 C4         -1.1006    3.9212   57.3201 C.3     1  ZINC000508782983    0.1000
      5 N5          0.0857    3.1814   56.8821 N.pl3   1  ZINC000508782983   -0.4400
      6 C6          0.6900    2.1485   57.5467 C.2     1  ZINC000508782983   -0.0400
      7 C7          1.7388    1.7623   56.7954 C.2     1  ZINC000508782983   -0.0300
      8 N8          1.7739    2.5383   55.7019 N.2     1  ZINC000508782983   -0.4700
      9 C9          0.7838    3.3873   55.7447 C.2     1  ZINC000508782983    0.1700
     10 C10         0.4760    4.4308   54.7019 C.3     1  ZINC000508782983    0.2100
     11 N11        -0.1038    3.7854   53.5214 N.am    1  ZINC000508782983   -0.6900
     12 C12        -1.0075    4.4439   52.7689 C.2     1  ZINC000508782983    0.5100
     13 O13        -1.3419    5.5708   53.0701 O.2     1  ZINC000508782983   -0.5100
     14 C14        -1.5976    3.7862   51.5636 C.2     1  ZINC000508782983    0.5100
     15 O15        -1.0159    3.8352   50.4998 O.2     1  ZINC000508782983   -0.5200
     16 N16        -2.7758    3.1387   51.6582 N.am    1  ZINC000508782983   -0.5800
     17 C17        -3.5004    3.0726   52.9365 C.3     1  ZINC000508782983    0.0800
     18 C18        -4.9462    3.5220   52.7003 C.3     1  ZINC000508782983    0.0400
     19 N19        -5.5314    2.7266   51.6128 N.3     1  ZINC000508782983   -0.5400
     20 C20        -6.9665    3.0060   51.4696 C.3     1  ZINC000508782983    0.1400
     21 C21        -7.7567    1.7768   51.8379 C.2     1  ZINC000508782983    0.2100
     22 N22        -9.0493    1.6401   51.7208 N.2     1  ZINC000508782983   -0.4900
     23 C23        -9.4049    0.4178   52.1431 C.2     1  ZINC000508782983   -0.0300
     24 C24        -8.2905   -0.2275   52.5369 C.2     1  ZINC000508782983   -0.0500
     25 N25        -7.2439    0.6322   52.3386 N.pl3   1  ZINC000508782983   -0.5600
     26 C26        -4.8221    2.9523   50.3463 C.3     1  ZINC000508782983    0.0400
     27 C27        -3.3742    2.4847   50.4845 C.3     1  ZINC000508782983    0.1100
     28 H28        -3.4023    1.4032   56.8304 H       1  ZINC000508782983    0.0700
     29 H29        -1.6347    1.2684   56.9914 H       1  ZINC000508782983    0.0600
     30 H30        -2.6066    1.8936   58.3452 H       1  ZINC000508782983    0.0600
     31 H31        -2.2563    3.2468   55.6318 H       1  ZINC000508782983    0.0800
     32 H32        -3.7223    4.0809   58.1746 H       1  ZINC000508782983    0.0600
     33 H33        -3.4356    5.1423   56.7748 H       1  ZINC000508782983    0.0600
     34 H34        -4.4627    3.6989   56.6017 H       1  ZINC000508782983    0.0600
     35 H35        -1.0261    4.9566   56.9880 H       1  ZINC000508782983    0.1000
     36 H36        -1.1658    3.8922   58.4077 H       1  ZINC000508782983    0.0900
     37 H37         0.3845    1.7249   58.4921 H       1  ZINC000508782983    0.1800
     38 H38         2.4303    0.9672   57.0319 H       1  ZINC000508782983    0.1700
     39 H39        -0.2341    5.1514   55.1076 H       1  ZINC000508782983    0.0900
     40 H40         1.3948    4.9452   54.4202 H       1  ZINC000508782983    0.1100
     41 H41         0.1627    2.8841   53.2814 H       1  ZINC000508782983    0.4200
     42 H42        -3.4916    2.0486   53.3098 H       1  ZINC000508782983    0.0800
     43 H43        -3.0252    3.7336   53.6613 H       1  ZINC000508782983    0.1400
     44 H44        -5.5262    3.3749   53.6113 H       1  ZINC000508782983    0.0900
     45 H45        -4.9591    4.5771   52.4269 H       1  ZINC000508782983    0.0400
     46 H46        -7.2443    3.8278   52.1294 H       1  ZINC000508782983    0.0900
     47 H47        -7.1820    3.2805   50.4369 H       1  ZINC000508782983    0.0700
     48 H48       -10.4090    0.0207   52.1637 H       1  ZINC000508782983    0.1700
     49 H49        -8.2329   -1.2319   52.9298 H       1  ZINC000508782983    0.1800
     50 H50        -6.3093    0.4545   52.5275 H       1  ZINC000508782983    0.4200
     51 H51        -5.3122    2.3919   49.5501 H       1  ZINC000508782983    0.1100
     52 H52        -4.8368    4.0153   50.1057 H       1  ZINC000508782983    0.0400
     53 H53        -2.8152    2.7543   49.5885 H       1  ZINC000508782983    0.1000
     54 H54        -3.3500    1.4038   50.6231 H       1  ZINC000508782983    0.0800
@<TRIPOS>BOND
     1     1     2    1
     2     1    28    1
     3     1    29    1
     4     1    30    1
     5     2     3    1
     6     2     4    1
     7     2    31    1
     8     3    32    1
     9     3    33    1
    10     3    34    1
    11     4     5    1
    12     4    35    1
    13     4    36    1
    14     5     9    1
    15     5     6    1
    16     6     7    2
    17     6    37    1
    18     7     8    1
    19     7    38    1
    20     8     9    2
    21     9    10    1
    22    10    11    1
    23    10    39    1
    24    10    40    1
    25    11    12   am
    26    11    41    1
    27    12    13    2
    28    12    14    1
    29    14    15    2
    30    14    16   am
    31    16    27    1
    32    16    17    1
    33    17    18    1
    34    17    42    1
    35    17    43    1
    36    18    19    1
    37    18    44    1
    38    18    45    1
    39    19    20    1
    40    19    26    1
    41    20    21    1
    42    20    46    1
    43    20    47    1
    44    21    25    1
    45    21    22    2
    46    22    23    1
    47    23    24    2
    48    23    48    1
    49    24    25    1
    50    24    49    1
    51    25    50    1
    52    26    27    1
    53    26    51    1
    54    26    52    1
    55    27    53    1
    56    27    54    1
@<TRIPOS>SUBSTRUCTURE
     1 ZINC000508782983        1 TEMP              0 ****  ****    0 ROOT


##########                                Name:    ZINC000301324012
##########                DOCK_Rotatable_Bonds:                   7
##########                         Heavy_Atoms:                  28
##########                    Molecular_Weight:               415.9
##########                DOCK_Rotatable_Bonds:                   7
##########                       Formal_Charge:          -0.0100002
##########                     HBond_Acceptors:                   8
##########                        HBond_Donors:                   2
##########                         Heavy_Atoms:                  28
##########                          Grid_Score:          -33.771801
##########                     Grid_vdw_energy:          -33.474716
##########                      Grid_es_energy:           -0.297084
##########           Internal_energy_repulsive:           10.788446

@<TRIPOS>MOLECULE
ZINC000301324012
 46 48 1 0 0
SMALL
USER_CHARGES


@<TRIPOS>ATOM
      1 C1        -11.6253   -3.1429   53.7040 C.3     1  ZINC000301324012   -0.1600
      2 C2        -11.6761   -1.6137   53.6988 C.3     1  ZINC000301324012    0.2000
      3 H3        -11.7614   -1.2496   54.7227 H       1  ZINC000301324012    0.1100
      4 N4        -10.4506   -1.0864   53.0935 N.am    1  ZINC000301324012   -0.7100
      5 C5        -10.1594    0.2255   53.1949 C.2     1  ZINC000301324012    0.5500
      6 O6        -10.9128    0.9712   53.7898 O.2     1  ZINC000301324012   -0.5300
      7 C7         -8.9235    0.7578   52.5824 C.ar    1  ZINC000301324012   -0.0700
      8 C8         -7.8549   -0.0959   52.3046 C.ar    1  ZINC000301324012   -0.1100
      9 C9         -6.7047    0.4071   51.7326 C.ar    1  ZINC000301324012   -0.0200
     10 C10        -6.6089    1.7548   51.4348 C.ar    1  ZINC000301324012   -0.6600
     11 S11        -5.1361    2.3892   50.7047 S.o2    1  ZINC000301324012    2.6900
     12 O12        -4.1246    1.4173   50.9324 O.2     1  ZINC000301324012   -0.9400
     13 O13        -5.4959    2.8474   49.4087 O.2     1  ZINC000301324012   -0.9400
     14 N14        -4.6984    3.7313   51.5704 N.am    1  ZINC000301324012   -1.0500
     15 C15        -4.4187    3.6217   52.9353 C.ar    1  ZINC000301324012    0.1600
     16 C16        -5.4368    3.7668   53.8681 C.ar    1  ZINC000301324012   -0.1600
     17 C17        -5.1571    3.6578   55.2167 C.ar    1  ZINC000301324012   -0.0800
     18 C18        -3.8649    3.4050   55.6384 C.ar    1  ZINC000301324012   -0.1200
     19 C19        -2.8477    3.2597   54.7125 C.ar    1  ZINC000301324012   -0.0900
     20 C20        -3.1214    3.3613   53.3620 C.ar    1  ZINC000301324012   -0.0600
     21 Cl21       -1.8444    3.1789   52.2002 Cl      1  ZINC000301324012   -0.0600
     22 C22        -7.6648    2.6065   51.7072 C.ar    1  ZINC000301324012   -0.0200
     23 C23        -8.8225    2.1154   52.2742 C.ar    1  ZINC000301324012   -0.0800
     24 C24       -12.8689   -1.1534   52.9011 C.ar    1  ZINC000301324012    0.1200
     25 C25       -14.1008   -1.0423   53.5170 C.ar    1  ZINC000301324012   -0.1600
     26 C26       -15.1919   -0.6175   52.7740 C.ar    1  ZINC000301324012   -0.0700
     27 C27       -15.0015   -0.3191   51.4337 C.ar    1  ZINC000301324012   -0.1700
     28 C28       -13.7395   -0.4540   50.8863 C.ar    1  ZINC000301324012    0.1100
     29 N29       -12.7236   -0.8560   51.6244 N.ar    1  ZINC000301324012   -0.4900
     30 H30       -12.5370   -3.5352   54.1544 H       1  ZINC000301324012    0.0700
     31 H31       -11.5400   -3.5070   52.6802 H       1  ZINC000301324012    0.0600
     32 H32       -10.7626   -3.4758   54.2811 H       1  ZINC000301324012    0.0700
     33 H33        -9.8489   -1.6817   52.6197 H       1  ZINC000301324012    0.4100
     34 H34        -7.9282   -1.1481   52.5373 H       1  ZINC000301324012    0.1400
     35 H35        -5.8771   -0.2526   51.5171 H       1  ZINC000301324012    0.1500
     36 H36        -4.6363    4.5934   51.1302 H       1  ZINC000301324012    0.4300
     37 H37        -6.4464    3.9650   53.5398 H       1  ZINC000301324012    0.1700
     38 H38        -5.9488    3.7707   55.9425 H       1  ZINC000301324012    0.1400
     39 H39        -3.6492    3.3211   56.6933 H       1  ZINC000301324012    0.1400
     40 H40        -1.8395    3.0623   55.0454 H       1  ZINC000301324012    0.1400
     41 H41        -7.5837    3.6575   51.4719 H       1  ZINC000301324012    0.1500
     42 H42        -9.6461    2.7812   52.4860 H       1  ZINC000301324012    0.1500
     43 H43       -14.2126   -1.2838   54.5637 H       1  ZINC000301324012    0.1400
     44 H44       -16.1669   -0.5217   53.2287 H       1  ZINC000301324012    0.1400
     45 H45       -15.8290    0.0142   50.8248 H       1  ZINC000301324012    0.1400
     46 H46       -13.5830   -0.2239   49.8427 H       1  ZINC000301324012    0.1600
@<TRIPOS>BOND
     1     1     2    1
     2     1    30    1
     3     1    31    1
     4     1    32    1
     5     2     3    1
     6     2     4    1
     7     2    24    1
     8     4     5   am
     9     4    33    1
    10     5     6    2
    11     5     7    1
    12     7    23   ar
    13     7     8   ar
    14     8     9   ar
    15     8    34    1
    16     9    10   ar
    17     9    35    1
    18    10    11    1
    19    10    22   ar
    20    11    12    2
    21    11    13    2
    22    11    14   am
    23    14    15    1
    24    14    36    1
    25    15    20   ar
    26    15    16   ar
    27    16    17   ar
    28    16    37    1
    29    17    18   ar
    30    17    38    1
    31    18    19   ar
    32    18    39    1
    33    19    20   ar
    34    19    40    1
    35    20    21    1
    36    22    23   ar
    37    22    41    1
    38    23    42    1
    39    24    29   ar
    40    24    25   ar
    41    25    26   ar
    42    25    43    1
    43    26    27   ar
    44    26    44    1
    45    27    28   ar
    46    27    45    1
    47    28    29   ar
    48    28    46    1
@<TRIPOS>SUBSTRUCTURE
     1 ZINC000301324012        1 TEMP              0 ****  ****    0 ROOT


##########                                Name:    ZINC000492313853
##########                DOCK_Rotatable_Bonds:                   8
##########                         Heavy_Atoms:                  30
##########                    Molecular_Weight:             418.422
##########                DOCK_Rotatable_Bonds:                   8
##########                       Formal_Charge:          -0.0100008
##########                     HBond_Acceptors:                  10
##########                        HBond_Donors:                   2
##########                         Heavy_Atoms:                  30
##########                          Grid_Score:          -33.755184
##########                     Grid_vdw_energy:          -32.317055
##########                      Grid_es_energy:           -1.438129
##########           Internal_energy_repulsive:           16.705034

@<TRIPOS>MOLECULE
ZINC000492313853
 51 53 1 0 0
SMALL
USER_CHARGES


@<TRIPOS>ATOM
      1 C1         -9.2034    1.3974   67.4429 C.3     1  ZINC000492313853    0.0900
      2 N2         -8.6619    0.4232   66.4920 N.pl3   1  ZINC000492313853   -0.6200
      3 C3         -7.7866   -0.6526   66.9640 C.3     1  ZINC000492313853    0.1000
      4 C4         -8.9787    0.5195   65.1420 C.ar    1  ZINC000492313853    0.4100
      5 C5        -10.0113    1.3576   64.7345 C.ar    1  ZINC000492313853   -0.2400
      6 C6        -10.3157    1.4443   63.3878 C.ar    1  ZINC000492313853   -0.0100
      7 C7         -9.5744    0.6870   62.4908 C.ar    1  ZINC000492313853   -0.2300
      8 C8         -9.8704    0.7503   61.0145 C.3     1  ZINC000492313853    0.2000
      9 N9         -9.0763    1.8185   60.4025 N.am    1  ZINC000492313853   -0.7300
     10 C10        -9.0842    1.9821   59.0647 C.2     1  ZINC000492313853    0.7100
     11 O11        -9.7515    1.2440   58.3659 O.2     1  ZINC000492313853   -0.5600
     12 N12        -8.3524    2.9639   58.5016 N.am    1  ZINC000492313853   -0.6600
     13 C13        -8.3592    3.1322   57.1167 C.2     1  ZINC000492313853    0.3300
     14 C14        -7.7679    2.3140   56.2070 C.2     1  ZINC000492313853   -0.2600
     15 C15        -8.0147    2.8446   54.9270 C.2     1  ZINC000492313853    0.1200
     16 C16        -7.5506    2.2675   53.6408 C.ar    1  ZINC000492313853   -0.0100
     17 C17        -8.1586    1.1239   53.1278 C.ar    1  ZINC000492313853   -0.0600
     18 C18        -7.7232    0.5916   51.9309 C.ar    1  ZINC000492313853   -0.1200
     19 C19        -6.6855    1.1917   51.2411 C.ar    1  ZINC000492313853   -0.0700
     20 C20        -6.0782    2.3276   51.7459 C.ar    1  ZINC000492313853   -0.1900
     21 C21        -4.9483    2.9762   50.9885 C.3     1  ZINC000492313853    0.5100
     22 F22        -3.9675    2.0197   50.7048 F       1  ZINC000492313853   -0.1800
     23 F23        -5.4363    3.5127   49.7922 F       1  ZINC000492313853   -0.1800
     24 F24        -4.3922    3.9981   51.7654 F       1  ZINC000492313853   -0.1800
     25 C25        -6.5089    2.8711   52.9390 C.ar    1  ZINC000492313853   -0.0400
     26 N26        -8.7284    3.9412   55.0685 N.2     1  ZINC000492313853   -0.2700
     27 N27        -8.9631    4.1404   56.4348 N.pl3   1  ZINC000492313853   -0.3900
     28 C28        -9.7191    5.2473   57.0260 C.3     1  ZINC000492313853    0.1000
     29 C29        -8.5628   -0.1242   62.9650 C.ar    1  ZINC000492313853    0.1700
     30 N30        -8.2912   -0.1833   64.2548 N.ar    1  ZINC000492313853   -0.5400
     31 H31        -8.5179    2.2405   67.5292 H       1  ZINC000492313853    0.0600
     32 H32       -10.1717    1.7512   67.0888 H       1  ZINC000492313853    0.0700
     33 H33        -9.3234    0.9253   68.4180 H       1  ZINC000492313853    0.0700
     34 H34        -7.6536   -0.5660   68.0425 H       1  ZINC000492313853    0.0700
     35 H35        -8.2374   -1.6170   66.7300 H       1  ZINC000492313853    0.0600
     36 H36        -6.8176   -0.5752   66.4711 H       1  ZINC000492313853    0.0600
     37 H37       -10.5681    1.9326   65.4596 H       1  ZINC000492313853    0.1300
     38 H38       -11.1123    2.0863   63.0419 H       1  ZINC000492313853    0.1400
     39 H39        -9.6151   -0.2029   60.5516 H       1  ZINC000492313853    0.0800
     40 H40       -10.9306    0.9544   60.8650 H       1  ZINC000492313853    0.0800
     41 H41        -8.5449    2.4081   60.9601 H       1  ZINC000492313853    0.4000
     42 H42        -7.8210    3.5535   59.0592 H       1  ZINC000492313853    0.4100
     43 H43        -7.2080    1.4171   56.4270 H       1  ZINC000492313853    0.1800
     44 H44        -8.9688    0.6543   53.6659 H       1  ZINC000492313853    0.1400
     45 H45        -8.1937   -0.2951   51.5324 H       1  ZINC000492313853    0.1400
     46 H46        -6.3478    0.7719   50.3051 H       1  ZINC000492313853    0.1400
     47 H47        -6.0342    3.7578   53.3322 H       1  ZINC000492313853    0.1400
     48 H48       -10.7698    4.9684   57.1046 H       1  ZINC000492313853    0.0800
     49 H49        -9.3261    5.4663   58.0188 H       1  ZINC000492313853    0.0800
     50 H50        -9.6239    6.1305   56.3944 H       1  ZINC000492313853    0.1000
     51 H51        -7.9836   -0.7150   62.2707 H       1  ZINC000492313853    0.1600
@<TRIPOS>BOND
     1     1     2    1
     2     1    31    1
     3     1    32    1
     4     1    33    1
     5     2     3    1
     6     2     4    1
     7     3    34    1
     8     3    35    1
     9     3    36    1
    10     4    30   ar
    11     4     5   ar
    12     5     6   ar
    13     5    37    1
    14     6     7   ar
    15     6    38    1
    16     7     8    1
    17     7    29   ar
    18     8     9    1
    19     8    39    1
    20     8    40    1
    21     9    10   am
    22     9    41    1
    23    10    11    2
    24    10    12   am
    25    12    13    1
    26    12    42    1
    27    13    27    1
    28    13    14    2
    29    14    15    1
    30    14    43    1
    31    15    16    1
    32    15    26    2
    33    16    25   ar
    34    16    17   ar
    35    17    18   ar
    36    17    44    1
    37    18    19   ar
    38    18    45    1
    39    19    20   ar
    40    19    46    1
    41    20    21    1
    42    20    25   ar
    43    21    22    1
    44    21    23    1
    45    21    24    1
    46    25    47    1
    47    26    27    1
    48    27    28    1
    49    28    48    1
    50    28    49    1
    51    28    50    1
    52    29    30   ar
    53    29    51    1
@<TRIPOS>SUBSTRUCTURE
     1 ZINC000492313853        1 TEMP              0 ****  ****    0 ROOT


##########                                Name:    ZINC000821177065
##########                DOCK_Rotatable_Bonds:                  10
##########                         Heavy_Atoms:                  25
##########                    Molecular_Weight:             341.413
##########                DOCK_Rotatable_Bonds:                  10
##########                       Formal_Charge:          0.00999917
##########                     HBond_Acceptors:                   7
##########                        HBond_Donors:                   3
##########                         Heavy_Atoms:                  25
##########                          Grid_Score:          -33.743961
##########                     Grid_vdw_energy:          -31.013144
##########                      Grid_es_energy:           -2.730819
##########           Internal_energy_repulsive:           18.714792

@<TRIPOS>MOLECULE
ZINC000821177065
 48 51 1 0 0
SMALL
USER_CHARGES


@<TRIPOS>ATOM
      1 O1         -8.8707    3.1926   55.6717 O.2     1  ZINC000821177065   -0.5600
      2 C2         -7.7448    2.7507   55.5474 C.2     1  ZINC000821177065    0.7100
      3 N3         -7.0817    2.9129   54.3853 N.am    1  ZINC000821177065   -0.7300
      4 C4         -7.7197    3.6167   53.2699 C.3     1  ZINC000821177065    0.1200
      5 C5         -7.2299    3.0252   51.9466 C.3     1  ZINC000821177065    0.1900
      6 O6         -8.0555    3.4964   50.8797 O.3     1  ZINC000821177065   -0.5400
      7 C7         -5.7826    3.4557   51.7001 C.3     1  ZINC000821177065   -0.1500
      8 C8         -4.7474    2.3533   51.4682 C.3     1  ZINC000821177065   -0.1600
      9 C9         -5.2068    3.2291   50.3008 C.3     1  ZINC000821177065   -0.1700
     10 C10        -7.3036    1.4983   52.0123 C.3     1  ZINC000821177065   -0.1800
     11 C11        -8.6545    0.8429   51.7188 C.3     1  ZINC000821177065   -0.1900
     12 C12        -7.5187    0.7442   50.6985 C.3     1  ZINC000821177065   -0.1700
     13 N13        -7.1578    2.1033   56.5734 N.am    1  ZINC000821177065   -0.6500
     14 C14        -7.8476    1.9345   57.7822 C.2     1  ZINC000821177065    0.3200
     15 N15        -8.1892    0.7879   58.3211 N.2     1  ZINC000821177065   -0.3200
     16 N16        -8.8606    1.0523   59.5216 N.pl3   1  ZINC000821177065   -0.3600
     17 C17        -9.4111    0.0509   60.4383 C.3     1  ZINC000821177065    0.1900
     18 C18       -10.1464   -1.0018   59.6497 C.ar    1  ZINC000821177065    0.1100
     19 C19        -9.6138   -2.2725   59.5442 C.ar    1  ZINC000821177065   -0.1500
     20 C20       -10.2986   -3.2340   58.8165 C.ar    1  ZINC000821177065   -0.0700
     21 C21       -11.4985   -2.8794   58.2198 C.ar    1  ZINC000821177065   -0.1700
     22 C22       -11.9692   -1.5883   58.3690 C.ar    1  ZINC000821177065    0.1000
     23 N23       -11.2936   -0.7012   59.0725 N.ar    1  ZINC000821177065   -0.4700
     24 C24        -8.9112    2.3909   59.6864 C.2     1  ZINC000821177065    0.0700
     25 C25        -8.2883    2.9625   58.6308 C.2     1  ZINC000821177065   -0.2600
     26 H26        -6.1820    2.5638   54.2874 H       1  ZINC000821177065    0.4000
     27 H27        -8.8016    3.5035   53.3401 H       1  ZINC000821177065    0.0700
     28 H28        -7.4615    4.6748   53.3126 H       1  ZINC000821177065    0.0800
     29 H29        -7.9272    4.4308   50.6663 H       1  ZINC000821177065    0.3800
     30 H30        -5.4584    4.3456   52.2397 H       1  ZINC000821177065    0.1100
     31 H31        -3.7418    2.5176   51.8554 H       1  ZINC000821177065    0.0900
     32 H32        -5.0974    1.3213   51.4913 H       1  ZINC000821177065    0.1100
     33 H33        -5.8590    2.7733   49.5559 H       1  ZINC000821177065    0.1000
     34 H34        -4.5035    3.9697   49.9200 H       1  ZINC000821177065    0.0900
     35 H35        -6.6687    1.0289   52.7638 H       1  ZINC000821177065    0.1100
     36 H36        -8.9088   -0.0579   52.2774 H       1  ZINC000821177065    0.1000
     37 H37        -9.4909    1.4994   51.4789 H       1  ZINC000821177065    0.1100
     38 H38        -7.6078    1.3358   49.7874 H       1  ZINC000821177065    0.0900
     39 H39        -7.0257   -0.2214   50.5858 H       1  ZINC000821177065    0.1000
     40 H40        -6.2581    1.7542   56.4755 H       1  ZINC000821177065    0.4100
     41 H41        -8.5996   -0.4148   60.9975 H       1  ZINC000821177065    0.1000
     42 H42       -10.1003    0.5329   61.1317 H       1  ZINC000821177065    0.1200
     43 H43        -8.6758   -2.5137   60.0222 H       1  ZINC000821177065    0.1400
     44 H44        -9.9062   -4.2353   58.7168 H       1  ZINC000821177065    0.1400
     45 H45       -12.0585   -3.6026   57.6454 H       1  ZINC000821177065    0.1400
     46 H46       -12.9031   -1.3039   57.9069 H       1  ZINC000821177065    0.1600
     47 H47        -9.3644    2.9127   60.5162 H       1  ZINC000821177065    0.1800
     48 H48        -8.1594    4.0221   58.4661 H       1  ZINC000821177065    0.1700
@<TRIPOS>BOND
     1     1     2    2
     2     2     3   am
     3     2    13   am
     4     3     4    1
     5     3    26    1
     6     4     5    1
     7     4    27    1
     8     4    28    1
     9     5     6    1
    10     5     7    1
    11     5    10    1
    12     6    29    1
    13     7     9    1
    14     7     8    1
    15     7    30    1
    16     8     9    1
    17     8    31    1
    18     8    32    1
    19     9    33    1
    20     9    34    1
    21    10    12    1
    22    10    11    1
    23    10    35    1
    24    11    12    1
    25    11    36    1
    26    11    37    1
    27    12    38    1
    28    12    39    1
    29    13    14    1
    30    13    40    1
    31    14    25    1
    32    14    15    2
    33    15    16    1
    34    16    17    1
    35    16    24    1
    36    17    18    1
    37    17    41    1
    38    17    42    1
    39    18    23   ar
    40    18    19   ar
    41    19    20   ar
    42    19    43    1
    43    20    21   ar
    44    20    44    1
    45    21    22   ar
    46    21    45    1
    47    22    23   ar
    48    22    46    1
    49    24    25    2
    50    24    47    1
    51    25    48    1
@<TRIPOS>SUBSTRUCTURE
     1 ZINC000821177065        1 TEMP              0 ****  ****    0 ROOT


##########                                Name:    ZINC000000992968
##########                DOCK_Rotatable_Bonds:                   8
##########                         Heavy_Atoms:                  27
##########                    Molecular_Weight:             384.772
##########                DOCK_Rotatable_Bonds:                   8
##########                       Formal_Charge:           0.0199999
##########                     HBond_Acceptors:                   7
##########                        HBond_Donors:                   0
##########                         Heavy_Atoms:                  27
##########                          Grid_Score:          -33.743111
##########                     Grid_vdw_energy:          -29.982437
##########                      Grid_es_energy:           -3.760673
##########           Internal_energy_repulsive:            7.217043

@<TRIPOS>MOLECULE
ZINC000000992968
 40 42 1 0 0
SMALL
USER_CHARGES


@<TRIPOS>ATOM
      1 O1         -1.1699    1.6527   66.5146 O.2     1  ZINC000000992968   -0.4600
      2 C2         -1.8531    2.0660   65.5971 C.2     1  ZINC000000992968    0.5600
      3 O3         -2.9429    2.8194   65.8535 O.3     1  ZINC000000992968   -0.2900
      4 C4         -4.1495    2.2000   65.8973 C.ar    1  ZINC000000992968    0.1200
      5 C5         -4.3802    1.1975   66.8331 C.ar    1  ZINC000000992968   -0.1300
      6 C6         -5.6018    0.5660   66.8815 C.ar    1  ZINC000000992968   -0.0400
      7 C7         -6.6138    0.9347   65.9867 C.ar    1  ZINC000000992968   -0.1600
      8 C8         -7.9199    0.2643   66.0341 C.2     1  ZINC000000992968    0.4000
      9 O9         -8.0801   -0.7017   66.7499 O.2     1  ZINC000000992968   -0.4200
     10 C10        -9.0610    0.7767   65.1936 C.3     1  ZINC000000992968    0.0200
     11 O11        -9.0584    0.0992   63.9094 O.3     1  ZINC000000992968   -0.3300
     12 C12       -10.0706    0.3823   63.0665 C.2     1  ZINC000000992968    0.5100
     13 O13       -10.8012    1.3266   63.2902 O.2     1  ZINC000000992968   -0.5000
     14 C14       -10.2918   -0.4554   61.8708 C.ar    1  ZINC000000992968   -0.1300
     15 C15       -11.5780   -0.8962   61.5515 C.ar    1  ZINC000000992968   -0.0500
     16 C16       -11.7781   -1.6778   60.4334 C.ar    1  ZINC000000992968   -0.1200
     17 C17       -10.7066   -2.0262   59.6275 C.ar    1  ZINC000000992968    0.0000
     18 Cl18      -10.9665   -3.0109   58.2218 Cl      1  ZINC000000992968   -0.0500
     19 C19        -9.4285   -1.5916   59.9386 C.ar    1  ZINC000000992968   -0.1200
     20 C20        -9.2163   -0.8052   61.0511 C.ar    1  ZINC000000992968   -0.0400
     21 C21        -6.3765    1.9451   65.0467 C.ar    1  ZINC000000992968   -0.0600
     22 C22        -5.1530    2.5740   65.0102 C.ar    1  ZINC000000992968   -0.1200
     23 C23        -1.4896    1.7510   64.2139 C.2     1  ZINC000000992968   -0.0700
     24 C24        -1.7511    2.5252   63.1185 C.2     1  ZINC000000992968   -0.0900
     25 C25        -1.2291    1.8434   62.0090 C.2     1  ZINC000000992968   -0.2300
     26 C26        -0.6787    0.6974   62.4687 C.2     1  ZINC000000992968    0.0200
     27 O27        -0.8325    0.6482   63.7981 O.3     1  ZINC000000992968   -0.1500
     28 H28        -3.5990    0.9137   67.5228 H       1  ZINC000000992968    0.1400
     29 H29        -5.7798   -0.2130   67.6081 H       1  ZINC000000992968    0.1500
     30 H30       -10.0041    0.5832   65.7045 H       1  ZINC000000992968    0.1100
     31 H31        -8.9449    1.8494   65.0387 H       1  ZINC000000992968    0.1100
     32 H32       -12.4141   -0.6258   62.1795 H       1  ZINC000000992968    0.1500
     33 H33       -12.7722   -2.0193   60.1855 H       1  ZINC000000992968    0.1500
     34 H34        -8.5972   -1.8663   59.3062 H       1  ZINC000000992968    0.1500
     35 H35        -8.2195   -0.4669   61.2923 H       1  ZINC000000992968    0.1500
     36 H36        -7.1537    2.2330   64.3542 H       1  ZINC000000992968    0.1400
     37 H37        -4.9690    3.3536   64.2859 H       1  ZINC000000992968    0.1400
     38 H38        -2.2607    3.4773   63.1088 H       1  ZINC000000992968    0.1700
     39 H39        -1.2611    2.1722   60.9808 H       1  ZINC000000992968    0.1700
     40 H40        -0.1916   -0.0530   61.8638 H       1  ZINC000000992968    0.2200
@<TRIPOS>BOND
     1     1     2    2
     2     2     3    1
     3     2    23    1
     4     3     4    1
     5     4    22   ar
     6     4     5   ar
     7     5     6   ar
     8     5    28    1
     9     6     7   ar
    10     6    29    1
    11     7     8    1
    12     7    21   ar
    13     8     9    2
    14     8    10    1
    15    10    11    1
    16    10    30    1
    17    10    31    1
    18    11    12    1
    19    12    13    2
    20    12    14    1
    21    14    20   ar
    22    14    15   ar
    23    15    16   ar
    24    15    32    1
    25    16    17   ar
    26    16    33    1
    27    17    18    1
    28    17    19   ar
    29    19    20   ar
    30    19    34    1
    31    20    35    1
    32    21    22   ar
    33    21    36    1
    34    22    37    1
    35    23    27    1
    36    23    24    2
    37    24    25    1
    38    24    38    1
    39    25    26    2
    40    25    39    1
    41    26    27    1
    42    26    40    1
@<TRIPOS>SUBSTRUCTURE
     1 ZINC000000992968        1 TEMP              0 ****  ****    0 ROOT


##########                                Name:    ZINC000981700465
##########                DOCK_Rotatable_Bonds:                   9
##########                         Heavy_Atoms:                  26
##########                    Molecular_Weight:             356.428
##########                DOCK_Rotatable_Bonds:                   9
##########                       Formal_Charge:               -0.01
##########                     HBond_Acceptors:                   8
##########                        HBond_Donors:                   3
##########                         Heavy_Atoms:                  26
##########                          Grid_Score:          -33.674034
##########                     Grid_vdw_energy:          -33.369934
##########                      Grid_es_energy:           -0.304101
##########           Internal_energy_repulsive:           12.871758

@<TRIPOS>MOLECULE
ZINC000981700465
 50 52 1 0 0
SMALL
USER_CHARGES


@<TRIPOS>ATOM
      1 C1        -11.2768   -1.4638   52.9776 C.3     1  ZINC000981700465   -0.1500
      2 C2        -12.2967   -1.7541   54.0806 C.3     1  ZINC000981700465   -0.1100
      3 C3        -12.2194   -3.2316   54.4706 C.3     1  ZINC000981700465   -0.0500
      4 C4        -13.2354   -3.5212   55.5452 C.2     1  ZINC000981700465    0.1400
      5 N5        -14.4600   -3.9276   55.3530 N.2     1  ZINC000981700465   -0.2900
      6 N6        -15.0858   -4.0839   56.5948 N.pl3   1  ZINC000981700465   -0.4600
      7 C7        -14.2079   -3.7609   57.5578 C.2     1  ZINC000981700465    0.1000
      8 C8        -13.0265   -3.4063   56.9379 C.2     1  ZINC000981700465   -0.2900
      9 C9        -11.7829   -2.9779   57.6039 C.2     1  ZINC000981700465    0.5900
     10 O10       -10.8198   -2.6479   56.9391 O.2     1  ZINC000981700465   -0.5300
     11 N11       -11.7136   -2.9522   58.9497 N.am    1  ZINC000981700465   -0.7300
     12 C12       -10.4773   -2.5282   59.6114 C.3     1  ZINC000981700465    0.1300
     13 C13       -10.5096   -1.0143   59.8307 C.3     1  ZINC000981700465   -0.1100
     14 H14       -10.7739   -0.5015   58.9060 H       1  ZINC000981700465    0.0900
     15 C15       -11.5089   -0.6509   60.9570 C.3     1  ZINC000981700465   -0.1200
     16 C16       -10.9874    0.7230   61.4463 C.3     1  ZINC000981700465   -0.1300
     17 C17        -9.4518    0.5886   61.3849 C.3     1  ZINC000981700465    0.1400
     18 H18        -9.0071    1.5303   61.0631 H       1  ZINC000981700465    0.1000
     19 N19        -8.9282    0.2103   62.6998 N.am    1  ZINC000981700465   -0.7100
     20 C20        -8.9126    1.1100   63.7032 C.2     1  ZINC000981700465    0.5600
     21 O21        -9.3313    2.2354   63.5168 O.2     1  ZINC000981700465   -0.5200
     22 C22        -8.3848    0.7270   65.0332 C.ar    1  ZINC000981700465   -0.1400
     23 C23        -7.9306    1.6946   65.9386 C.ar    1  ZINC000981700465   -0.0600
     24 C24        -7.4514    1.2595   67.1636 C.ar    1  ZINC000981700465    0.0400
     25 N25        -7.4339   -0.0290   67.4442 N.ar    1  ZINC000981700465   -0.2200
     26 N26        -7.8482   -0.9201   66.6197 N.ar    1  ZINC000981700465   -0.2400
     27 C27        -8.3282   -0.6119   65.4304 C.ar    1  ZINC000981700465    0.0700
     28 C28        -9.1468   -0.5155   60.3544 C.3     1  ZINC000981700465   -0.1200
     29 H29       -11.4974   -2.0814   52.1070 H       1  ZINC000981700465    0.0600
     30 H30       -11.3318   -0.4113   52.6998 H       1  ZINC000981700465    0.0600
     31 H31       -10.2745   -1.6919   53.3403 H       1  ZINC000981700465    0.0500
     32 H32       -12.0760   -1.1366   54.9513 H       1  ZINC000981700465    0.0600
     33 H33       -13.2989   -1.5260   53.7179 H       1  ZINC000981700465    0.0600
     34 H34       -12.4282   -3.8493   53.5971 H       1  ZINC000981700465    0.1000
     35 H35       -11.2207   -3.4569   54.8446 H       1  ZINC000981700465    0.0800
     36 H36       -15.9999   -4.3763   56.7360 H       1  ZINC000981700465    0.4500
     37 H37       -14.3909   -3.7794   58.6220 H       1  ZINC000981700465    0.1800
     38 H38       -12.4823   -3.2143   59.4799 H       1  ZINC000981700465    0.4000
     39 H39       -10.3886   -3.0329   60.5735 H       1  ZINC000981700465    0.0700
     40 H40        -9.6231   -2.7866   58.9856 H       1  ZINC000981700465    0.0700
     41 H41       -12.5206   -0.5616   60.5616 H       1  ZINC000981700465    0.0700
     42 H42       -11.4703   -1.3870   61.7599 H       1  ZINC000981700465    0.0700
     43 H43       -11.3275    1.5183   60.7831 H       1  ZINC000981700465    0.0800
     44 H44       -11.3132    0.9125   62.4691 H       1  ZINC000981700465    0.0700
     45 H45        -8.5929   -0.6876   62.8483 H       1  ZINC000981700465    0.4000
     46 H46        -7.9529    2.7453   65.6897 H       1  ZINC000981700465    0.1700
     47 H47        -7.0921    1.9751   67.8883 H       1  ZINC000981700465    0.1800
     48 H48        -8.6680   -1.3906   64.7637 H       1  ZINC000981700465    0.1700
     49 H49        -8.6100   -1.3347   60.8326 H       1  ZINC000981700465    0.0800
     50 H50        -8.5545   -0.1082   59.5350 H       1  ZINC000981700465    0.0800
@<TRIPOS>BOND
     1     1     2    1
     2     1    29    1
     3     1    30    1
     4     1    31    1
     5     2     3    1
     6     2    32    1
     7     2    33    1
     8     3     4    1
     9     3    34    1
    10     3    35    1
    11     4     8    1
    12     4     5    2
    13     5     6    1
    14     6     7    1
    15     6    36    1
    16     7     8    2
    17     7    37    1
    18     8     9    1
    19     9    10    2
    20     9    11   am
    21    11    12    1
    22    11    38    1
    23    12    13    1
    24    12    39    1
    25    12    40    1
    26    13    14    1
    27    13    28    1
    28    13    15    1
    29    15    16    1
    30    15    41    1
    31    15    42    1
    32    16    17    1
    33    16    43    1
    34    16    44    1
    35    17    18    1
    36    17    19    1
    37    17    28    1
    38    19    20   am
    39    19    45    1
    40    20    21    2
    41    20    22    1
    42    22    27   ar
    43    22    23   ar
    44    23    24   ar
    45    23    46    1
    46    24    25   ar
    47    24    47    1
    48    25    26   ar
    49    26    27   ar
    50    27    48    1
    51    28    49    1
    52    28    50    1
@<TRIPOS>SUBSTRUCTURE
     1 ZINC000981700465        1 TEMP              0 ****  ****    0 ROOT


##########                                Name:     oleObject17.pdb
##########                DOCK_Rotatable_Bonds:                   8
##########                         Heavy_Atoms:                  29
##########                    Molecular_Weight:             435.393
##########                DOCK_Rotatable_Bonds:                   8
##########                       Formal_Charge:         0.000400059
##########                     HBond_Acceptors:                   6
##########                        HBond_Donors:                   0
##########                         Heavy_Atoms:                  29
##########                          Grid_Score:          -33.653473
##########                     Grid_vdw_energy:          -33.395721
##########                      Grid_es_energy:           -0.257750
##########           Internal_energy_repulsive:           24.130453

@<TRIPOS>MOLECULE
oleObject17.pdb
 57 59 1 0 0
SMALL
NO_CHARGES


@<TRIPOS>ATOM
      1 C         -12.6097   -1.9607   58.7348 C.3     1  UNL         0.0391
      2 C         -12.1266   -1.0779   59.8875 C.ar    1  UNL        -0.0277
      3 C         -12.8290   -0.9641   61.1138 C.ar    1  UNL        -0.0463
      4 C         -12.3371   -0.1049   62.1162 C.ar    1  UNL        -0.0590
      5 C         -11.1621    0.6337   61.9151 C.ar    1  UNL        -0.0620
      6 C         -10.4574    0.5089   60.7106 C.ar    1  UNL        -0.0619
      7 C         -10.9360   -0.3466   59.7073 C.ar    1  UNL        -0.0572
      8 C         -14.1055   -1.7495   61.3942 C.3     1  UNL        -0.0394
      9 N         -11.5007   -2.6427   58.0338 N.am    1  UNL        -0.3003
     10 C         -11.4609   -2.7061   56.6411 C.2     1  UNL         0.2175
     11 O         -10.7359   -3.5174   56.0907 O.2     1  UNL        -0.2772
     12 C         -12.6314   -2.0291   55.8801 C.3     1  UNL         0.0384
     13 C         -12.7869   -2.5557   54.4310 C.3     1  UNL        -0.0289
     14 C         -11.6173   -2.0990   53.5375 C.3     1  UNL        -0.0010
     15 N         -11.4848   -0.6257   53.5160 N.4     1  UNL        -0.3010
     16 C         -11.3945    0.0022   54.8552 C.3     1  UNL        -0.0010
     17 C         -12.5032   -0.4822   55.8249 C.3     1  UNL        -0.0289
     18 C         -10.4619   -0.1427   52.5603 C.3     1  UNL         0.0222
     19 C         -10.0820    1.3433   52.7575 C.3     1  UNL         0.0661
     20 O          -9.5470    1.8424   51.5200 O.3     1  UNL        -0.3432
     21 C          -8.1910    1.9089   51.2626 C.ar    1  UNL         0.0937
     22 C          -7.3012    0.8960   51.6811 C.ar    1  UNL        -0.0288
     23 C          -5.9301    0.9958   51.3930 C.ar    1  UNL        -0.0408
     24 C          -5.4390    2.1066   50.6893 C.ar    1  UNL         0.0422
     25 C          -6.3165    3.1200   50.2732 C.ar    1  UNL        -0.0221
     26 C          -7.6886    3.0224   50.5592 C.ar    1  UNL         0.0723
     27 CL         -8.7588    4.3030   50.0201 Cl      1  UNL        -0.0814
     28 CL         -3.7297    2.2279   50.3310 Cl      1  UNL        -0.0843
     29 C         -10.4644   -3.2469   58.8909 C.3     1  UNL         0.0031
     30 H         -13.1733   -1.3764   57.9989 H       1  UNL         0.0520
     31 H         -13.3045   -2.7067   59.1405 H       1  UNL         0.0520
     32 H         -12.8679   -0.0060   63.0588 H       1  UNL         0.0626
     33 H         -10.7954    1.2958   62.6945 H       1  UNL         0.0623
     34 H          -9.5437    1.0747   60.5534 H       1  UNL         0.0623
     35 H         -10.3840   -0.4320   58.7760 H       1  UNL         0.0626
     36 H         -13.9507   -2.8249   61.2429 H       1  UNL         0.0280
     37 H         -14.9232   -1.4261   60.7402 H       1  UNL         0.0280
     38 H         -14.4444   -1.6160   62.4290 H       1  UNL         0.0280
     39 H         -13.5512   -2.2603   56.4303 H       1  UNL         0.0402
     40 H         -13.7255   -2.1756   54.0074 H       1  UNL         0.0288
     41 H         -12.8615   -3.6479   54.4116 H       1  UNL         0.0288
     42 H         -11.7800   -2.4746   52.5191 H       1  UNL         0.0431
     43 H         -10.6949   -2.5528   53.9174 H       1  UNL         0.0431
     44 H         -11.4666    1.0927   54.7557 H       1  UNL         0.0431
     45 H         -10.4171   -0.2150   55.3004 H       1  UNL         0.0431
     46 H         -13.4609   -0.0615   55.4922 H       1  UNL         0.0288
     47 H         -12.3201   -0.0813   56.8301 H       1  UNL         0.0288
     48 H         -10.8255   -0.2801   51.5339 H       1  UNL         0.0455
     49 H          -9.5542   -0.7506   52.6663 H       1  UNL         0.0455
     50 H          -9.3250    1.4344   53.5449 H       1  UNL         0.0586
     51 H         -10.9673    1.9222   53.0471 H       1  UNL         0.0586
     52 H          -7.6579    0.0302   52.2294 H       1  UNL         0.0651
     53 H          -5.2503    0.2127   51.7167 H       1  UNL         0.0639
     54 H          -5.9350    3.9794   49.7291 H       1  UNL         0.0655
     55 H         -10.9128   -3.6285   59.8170 H       1  UNL         0.0433
     56 H          -9.7038   -2.4995   59.1465 H       1  UNL         0.0433
     57 H          -9.9866   -4.0875   58.3729 H       1  UNL         0.0433
@<TRIPOS>BOND
     1     1     2    1
     2     1     9    1
     3     1    30    1
     4     1    31    1
     5     2     3   ar
     6     2     7   ar
     7     3     4   ar
     8     3     8    1
     9     4     5   ar
    10     4    32    1
    11     5     6   ar
    12     5    33    1
    13     6     7   ar
    14     6    34    1
    15     7    35    1
    16     8    36    1
    17     8    37    1
    18     8    38    1
    19     9    10   am
    20     9    29    1
    21    10    11    2
    22    10    12    1
    23    12    13    1
    24    12    17    1
    25    12    39    1
    26    13    14    1
    27    13    40    1
    28    13    41    1
    29    14    15    1
    30    14    42    1
    31    14    43    1
    32    15    16    1
    33    15    18    1
    34    16    17    1
    35    16    44    1
    36    16    45    1
    37    17    46    1
    38    17    47    1
    39    18    19    1
    40    18    48    1
    41    18    49    1
    42    19    20    1
    43    19    50    1
    44    19    51    1
    45    20    21    1
    46    21    22   ar
    47    21    26   ar
    48    22    23   ar
    49    22    52    1
    50    23    24   ar
    51    23    53    1
    52    24    25   ar
    53    24    28    1
    54    25    26   ar
    55    25    54    1
    56    26    27    1
    57    29    55    1
    58    29    56    1
    59    29    57    1
@<TRIPOS>SUBSTRUCTURE
     1 UNL         1 TEMP              0 ****  ****    0 ROOT


##########                                Name:    ZINC000110375116
##########                DOCK_Rotatable_Bonds:                  10
##########                         Heavy_Atoms:                  27
##########                    Molecular_Weight:             396.511
##########                DOCK_Rotatable_Bonds:                  10
##########                       Formal_Charge:        -2.23517e-07
##########                     HBond_Acceptors:                   9
##########                        HBond_Donors:                   0
##########                         Heavy_Atoms:                  27
##########                          Grid_Score:          -33.629868
##########                     Grid_vdw_energy:          -32.988304
##########                      Grid_es_energy:           -0.641563
##########           Internal_energy_repulsive:           27.628029

@<TRIPOS>MOLECULE
ZINC000110375116
 55 56 1 0 0
SMALL
USER_CHARGES


@<TRIPOS>ATOM
      1 C1         -8.2616   -0.2492   62.9677 C.3     1  ZINC000110375116   -0.1700
      2 C2         -9.6280    0.0925   62.3700 C.3     1  ZINC000110375116    0.1000
      3 N3         -9.4719    1.1490   61.3671 N.am    1  ZINC000110375116   -0.6200
      4 C4         -9.7852    2.5380   61.7117 C.3     1  ZINC000110375116    0.1100
      5 C5        -11.2645    2.8114   61.4329 C.3     1  ZINC000110375116   -0.1700
      6 C6         -9.0402    0.8431   60.1276 C.2     1  ZINC000110375116    0.5100
      7 O7         -8.7824   -0.3070   59.8418 O.2     1  ZINC000110375116   -0.5300
      8 C8         -8.8780    1.9303   59.0965 C.3     1  ZINC000110375116   -0.1400
      9 C9         -9.1860    1.3663   57.7080 C.3     1  ZINC000110375116   -0.0900
     10 C10        -8.3673    2.1204   56.6583 C.3     1  ZINC000110375116   -0.1400
     11 C11        -8.8378    1.7321   55.2803 C.2     1  ZINC000110375116    0.5200
     12 O12        -9.6012    0.8000   55.1403 O.2     1  ZINC000110375116   -0.5300
     13 N13        -8.4103    2.4205   54.2033 N.am    1  ZINC000110375116   -0.6200
     14 C14        -7.4819    3.5493   54.3573 C.3     1  ZINC000110375116    0.0900
     15 C15        -6.2509    3.2948   53.4787 C.3     1  ZINC000110375116    0.1000
     16 N16        -6.7044    2.9298   52.1293 N.am    1  ZINC000110375116   -1.0000
     17 S17        -6.1784    3.7750   50.8060 S.o2    1  ZINC000110375116    2.7000
     18 O18        -6.6720    3.0843   49.6664 O.2     1  ZINC000110375116   -0.9400
     19 O19        -6.4579    5.1436   51.0668 O.2     1  ZINC000110375116   -0.9500
     20 C20        -4.4233    3.6265   50.7561 C.ar    1  ZINC000110375116   -0.7400
     21 C21        -3.6188    4.6400   51.2534 C.ar    1  ZINC000110375116    0.0200
     22 C22        -2.2426    4.4796   51.1937 C.ar    1  ZINC000110375116   -0.1900
     23 C23        -1.7227    3.3231   50.6445 C.ar    1  ZINC000110375116    0.1500
     24 N24        -2.5187    2.3794   50.1809 N.ar    1  ZINC000110375116   -0.4900
     25 C25        -3.8314    2.4954   50.2260 C.ar    1  ZINC000110375116    0.2000
     26 C26        -7.6328    1.8010   51.9753 C.3     1  ZINC000110375116    0.1000
     27 C27        -8.8595    2.0520   52.8533 C.3     1  ZINC000110375116    0.1000
     28 H28        -8.3777   -1.0352   63.7139 H       1  ZINC000110375116    0.0700
     29 H29        -7.5953   -0.5942   62.1771 H       1  ZINC000110375116    0.0600
     30 H30        -7.8384    0.6385   63.4379 H       1  ZINC000110375116    0.0600
     31 H31       -10.0511   -0.7951   61.8997 H       1  ZINC000110375116    0.0800
     32 H32       -10.2943    0.4376   63.1606 H       1  ZINC000110375116    0.0800
     33 H33        -9.5775    2.7060   62.7684 H       1  ZINC000110375116    0.0800
     34 H34        -9.1719    3.2088   61.1099 H       1  ZINC000110375116    0.0800
     35 H35       -11.4976    3.8449   61.6893 H       1  ZINC000110375116    0.0700
     36 H36       -11.4722    2.6436   60.3761 H       1  ZINC000110375116    0.0500
     37 H37       -11.8776    2.1407   62.0348 H       1  ZINC000110375116    0.0600
     38 H38        -9.5656    2.7465   59.3179 H       1  ZINC000110375116    0.0900
     39 H39        -7.8536    2.3021   59.1187 H       1  ZINC000110375116    0.0900
     40 H40        -8.9264    0.3081   57.6800 H       1  ZINC000110375116    0.0800
     41 H41       -10.2482    1.4856   57.4948 H       1  ZINC000110375116    0.0800
     42 H42        -8.4977    3.1934   56.7977 H       1  ZINC000110375116    0.1000
     43 H43        -7.3132    1.8652   56.7675 H       1  ZINC000110375116    0.1000
     44 H44        -7.9714    4.4711   54.0431 H       1  ZINC000110375116    0.0800
     45 H45        -7.1762    3.6318   55.4004 H       1  ZINC000110375116    0.1000
     46 H46        -5.6440    4.1987   53.4286 H       1  ZINC000110375116    0.1100
     47 H47        -5.6630    2.4794   53.9001 H       1  ZINC000110375116    0.0800
     48 H48        -4.0533    5.5334   51.6768 H       1  ZINC000110375116    0.1500
     49 H49        -1.5855    5.2489   51.5714 H       1  ZINC000110375116    0.1500
     50 H50        -0.6520    3.1906   50.5940 H       1  ZINC000110375116    0.1700
     51 H51        -4.4512    1.7015   49.8364 H       1  ZINC000110375116    0.1700
     52 H52        -7.9386    1.7185   50.9322 H       1  ZINC000110375116    0.1100
     53 H53        -7.1433    0.8793   52.2895 H       1  ZINC000110375116    0.0800
     54 H54        -9.4655    1.1473   52.9025 H       1  ZINC000110375116    0.1100
     55 H55        -9.4487    2.8677   52.4343 H       1  ZINC000110375116    0.0800
@<TRIPOS>BOND
     1     1     2    1
     2     1    28    1
     3     1    29    1
     4     1    30    1
     5     2     3    1
     6     2    31    1
     7     2    32    1
     8     3     4    1
     9     3     6   am
    10     4     5    1
    11     4    33    1
    12     4    34    1
    13     5    35    1
    14     5    36    1
    15     5    37    1
    16     6     7    2
    17     6     8    1
    18     8     9    1
    19     8    38    1
    20     8    39    1
    21     9    10    1
    22     9    40    1
    23     9    41    1
    24    10    11    1
    25    10    42    1
    26    10    43    1
    27    11    12    2
    28    11    13   am
    29    13    27    1
    30    13    14    1
    31    14    15    1
    32    14    44    1
    33    14    45    1
    34    15    16    1
    35    15    46    1
    36    15    47    1
    37    16    17   am
    38    16    26    1
    39    17    18    2
    40    17    19    2
    41    17    20    1
    42    20    25   ar
    43    20    21   ar
    44    21    22   ar
    45    21    48    1
    46    22    23   ar
    47    22    49    1
    48    23    24   ar
    49    23    50    1
    50    24    25   ar
    51    25    51    1
    52    26    27    1
    53    26    52    1
    54    26    53    1
    55    27    54    1
    56    27    55    1
@<TRIPOS>SUBSTRUCTURE
     1 ZINC000110375116        1 TEMP              0 ****  ****    0 ROOT


##########                                Name:    ZINC000482540246
##########                DOCK_Rotatable_Bonds:                  10
##########                         Heavy_Atoms:                  30
##########                    Molecular_Weight:              409.46
##########                DOCK_Rotatable_Bonds:                  10
##########                       Formal_Charge:         2.83122e-07
##########                     HBond_Acceptors:                   7
##########                        HBond_Donors:                   2
##########                         Heavy_Atoms:                  30
##########                          Grid_Score:          -33.623402
##########                     Grid_vdw_energy:          -32.623569
##########                      Grid_es_energy:           -0.999834
##########           Internal_energy_repulsive:           16.319902

@<TRIPOS>MOLECULE
ZINC000482540246
 54 56 1 0 0
SMALL
USER_CHARGES


@<TRIPOS>ATOM
      1 C1         -3.5398    2.2232   65.0820 C.3     1  ZINC000482540246    0.0400
      2 O2         -4.2736    3.4252   65.3246 O.3     1  ZINC000482540246   -0.3100
      3 C3         -5.6105    3.3019   65.5202 C.ar    1  ZINC000482540246    0.3300
      4 C4         -6.1981    2.0442   65.4809 C.ar    1  ZINC000482540246   -0.1800
      5 C5         -7.5630    1.9320   65.6820 C.ar    1  ZINC000482540246   -0.0100
      6 C6         -8.2390    0.5854   65.6478 C.3     1  ZINC000482540246    0.2000
      7 H7         -9.3035    0.7082   65.8466 H       1  ZINC000482540246    0.1000
      8 C8         -7.6223   -0.3219   66.7144 C.3     1  ZINC000482540246   -0.1600
      9 N9         -8.0554   -0.0196   64.3263 N.am    1  ZINC000482540246   -0.7400
     10 C10        -9.0195    0.0973   63.3919 C.2     1  ZINC000482540246    0.7100
     11 O11       -10.0423    0.7036   63.6461 O.2     1  ZINC000482540246   -0.5800
     12 N12        -8.8500   -0.4580   62.1755 N.am    1  ZINC000482540246   -0.7400
     13 C13        -9.8972   -0.3293   61.1592 C.3     1  ZINC000482540246    0.2100
     14 H14       -10.8577   -0.1616   61.6463 H       1  ZINC000482540246    0.1200
     15 C15        -9.9634   -1.6133   60.3297 C.3     1  ZINC000482540246    0.0500
     16 O16       -11.1122   -2.3707   60.7150 O.3     1  ZINC000482540246   -0.3000
     17 C17       -12.0823   -2.5406   59.7778 C.ar    1  ZINC000482540246    0.1000
     18 C18       -13.3888   -2.1697   60.0555 C.ar    1  ZINC000482540246   -0.1800
     19 C19       -14.3734   -2.3427   59.1010 C.ar    1  ZINC000482540246   -0.0900
     20 C20       -14.0574   -2.8850   57.8696 C.ar    1  ZINC000482540246   -0.1300
     21 C21       -12.7552   -3.2567   57.5884 C.ar    1  ZINC000482540246   -0.1200
     22 C22       -11.7650   -3.0807   58.5375 C.ar    1  ZINC000482540246    0.0700
     23 F23       -10.4929   -3.4437   58.2633 F       1  ZINC000482540246   -0.1300
     24 C24        -9.5813    0.8357   60.2570 C.ar    1  ZINC000482540246   -0.1000
     25 C25       -10.4232    1.9317   60.2230 C.ar    1  ZINC000482540246   -0.0800
     26 C26       -10.1334    3.0003   59.3953 C.ar    1  ZINC000482540246   -0.1200
     27 C27        -9.0016    2.9733   58.6021 C.ar    1  ZINC000482540246   -0.1200
     28 C28        -8.1594    1.8778   58.6369 C.ar    1  ZINC000482540246   -0.1200
     29 C29        -8.4468    0.8109   59.4677 C.ar    1  ZINC000482540246   -0.1000
     30 C30        -8.2948    3.0876   65.9163 C.ar    1  ZINC000482540246   -0.2100
     31 C31        -7.6444    4.3056   65.9416 C.ar    1  ZINC000482540246    0.1500
     32 N32        -6.3409    4.3802   65.7517 N.ar    1  ZINC000482540246   -0.5400
     33 H33        -2.4856    2.4628   64.9429 H       1  ZINC000482540246    0.1000
     34 H34        -3.6505    1.5518   65.9336 H       1  ZINC000482540246    0.0600
     35 H35        -3.9237    1.7380   64.1845 H       1  ZINC000482540246    0.0600
     36 H36        -5.5982    1.1654   65.2957 H       1  ZINC000482540246    0.1500
     37 H37        -6.5576   -0.4446   66.5156 H       1  ZINC000482540246    0.0600
     38 H38        -7.7589    0.1283   67.6976 H       1  ZINC000482540246    0.0700
     39 H39        -8.1111   -1.2958   66.6897 H       1  ZINC000482540246    0.0700
     40 H40        -7.2400   -0.5043   64.1239 H       1  ZINC000482540246    0.4000
     41 H41        -8.0346   -0.9427   61.9730 H       1  ZINC000482540246    0.4000
     42 H42       -10.0336   -1.3593   59.2720 H       1  ZINC000482540246    0.0800
     43 H43        -9.0639   -2.2042   60.5026 H       1  ZINC000482540246    0.0800
     44 H44       -13.6372   -1.7461   61.0175 H       1  ZINC000482540246    0.1400
     45 H45       -15.3913   -2.0540   59.3178 H       1  ZINC000482540246    0.1300
     46 H46       -14.8287   -3.0190   57.1257 H       1  ZINC000482540246    0.1400
     47 H47       -12.5109   -3.6807   56.6256 H       1  ZINC000482540246    0.1400
     48 H48       -11.3075    1.9528   60.8427 H       1  ZINC000482540246    0.1200
     49 H49       -10.7916    3.8563   59.3682 H       1  ZINC000482540246    0.1200
     50 H50        -8.7757    3.8080   57.9551 H       1  ZINC000482540246    0.1200
     51 H51        -7.2753    1.8564   58.0169 H       1  ZINC000482540246    0.1200
     52 H52        -7.7887   -0.0450   59.4948 H       1  ZINC000482540246    0.1200
     53 H53        -9.3615    3.0351   66.0768 H       1  ZINC000482540246    0.1400
     54 H54        -8.2092    5.2079   66.1236 H       1  ZINC000482540246    0.1600
@<TRIPOS>BOND
     1     1     2    1
     2     1    33    1
     3     1    34    1
     4     1    35    1
     5     2     3    1
     6     3    32   ar
     7     3     4   ar
     8     4     5   ar
     9     4    36    1
    10     5     6    1
    11     5    30   ar
    12     6     7    1
    13     6     8    1
    14     6     9    1
    15     8    37    1
    16     8    38    1
    17     8    39    1
    18     9    10   am
    19     9    40    1
    20    10    11    2
    21    10    12   am
    22    12    13    1
    23    12    41    1
    24    13    14    1
    25    13    15    1
    26    13    24    1
    27    15    16    1
    28    15    42    1
    29    15    43    1
    30    16    17    1
    31    17    22   ar
    32    17    18   ar
    33    18    19   ar
    34    18    44    1
    35    19    20   ar
    36    19    45    1
    37    20    21   ar
    38    20    46    1
    39    21    22   ar
    40    21    47    1
    41    22    23    1
    42    24    29   ar
    43    24    25   ar
    44    25    26   ar
    45    25    48    1
    46    26    27   ar
    47    26    49    1
    48    27    28   ar
    49    27    50    1
    50    28    29   ar
    51    28    51    1
    52    29    52    1
    53    30    31   ar
    54    30    53    1
    55    31    32   ar
    56    31    54    1
@<TRIPOS>SUBSTRUCTURE
     1 ZINC000482540246        1 TEMP              0 ****  ****    0 ROOT


##########                                Name:    ZINC000590699876
##########                DOCK_Rotatable_Bonds:                   9
##########                         Heavy_Atoms:                  30
##########                    Molecular_Weight:              421.54
##########                DOCK_Rotatable_Bonds:                   9
##########                       Formal_Charge:          -0.0300004
##########                     HBond_Acceptors:                   9
##########                        HBond_Donors:                   1
##########                         Heavy_Atoms:                  30
##########                          Grid_Score:          -33.602638
##########                     Grid_vdw_energy:          -34.014385
##########                      Grid_es_energy:            0.411748
##########           Internal_energy_repulsive:          101.487373

@<TRIPOS>MOLECULE
ZINC000590699876
 65 67 1 0 0
SMALL
USER_CHARGES


@<TRIPOS>ATOM
      1 C1         -1.1373    2.5601   51.3604 C.3     1  ZINC000590699876   -0.1700
      2 C2         -2.5103    2.6839   50.7519 C.2     1  ZINC000590699876    0.5100
      3 O3         -2.9045    1.8458   49.9691 O.2     1  ZINC000590699876   -0.5500
      4 N4         -3.3003    3.7261   51.0777 N.am    1  ZINC000590699876   -0.7200
      5 C5         -4.6358    3.8457   50.4875 C.3     1  ZINC000590699876    0.1100
      6 C6         -5.6334    3.1159   51.3497 C.2     1  ZINC000590699876    0.5300
      7 O7         -5.2734    2.1834   52.0366 O.2     1  ZINC000590699876   -0.5200
      8 N8         -6.9253    3.4993   51.3574 N.am    1  ZINC000590699876   -0.6000
      9 C9         -7.4965    4.6105   50.5747 C.3     1  ZINC000590699876    0.1000
     10 C10        -8.9995    4.2637   50.4320 C.3     1  ZINC000590699876   -0.1300
     11 C11        -9.3053    3.6294   51.8146 C.3     1  ZINC000590699876   -0.1300
     12 C12        -7.9998    2.8748   52.1428 C.3     1  ZINC000590699876    0.1200
     13 H13        -7.7762    2.9659   53.2057 H       1  ZINC000590699876    0.1000
     14 C14        -8.1410    1.4210   51.7718 C.2     1  ZINC000590699876    0.5100
     15 O15        -7.6974    1.0185   50.7172 O.2     1  ZINC000590699876   -0.5200
     16 N16        -8.7602    0.5682   52.6118 N.am    1  ZINC000590699876   -0.6100
     17 C17        -9.3122    1.0370   53.8920 C.3     1  ZINC000590699876    0.1000
     18 C18       -10.7666    0.5658   53.9966 C.3     1  ZINC000590699876    0.0400
     19 N19       -10.8232   -0.8876   53.7908 N.3     1  ZINC000590699876   -0.5200
     20 C20       -12.1732   -1.4042   54.0525 C.3     1  ZINC000590699876    0.0400
     21 C21       -12.2738   -1.8410   55.4912 C.2     1  ZINC000590699876    0.5200
     22 O22       -11.3482   -1.6458   56.2503 O.2     1  ZINC000590699876   -0.5100
     23 N23       -13.3922   -2.4484   55.9345 N.am    1  ZINC000590699876   -0.6100
     24 C24       -14.5218   -2.6917   55.0270 C.3     1  ZINC000590699876    0.1100
     25 C25       -15.7908   -2.1016   55.6501 C.3     1  ZINC000590699876   -0.1400
     26 C26       -15.9789   -2.6766   57.0559 C.3     1  ZINC000590699876   -0.1200
     27 C27       -14.7853   -2.2884   57.9315 C.3     1  ZINC000590699876   -0.1300
     28 C28       -13.5027   -2.8856   57.3329 C.3     1  ZINC000590699876    0.1400
     29 H29       -13.5503   -3.9736   57.3785 H       1  ZINC000590699876    0.0700
     30 C30       -12.2894   -2.3916   58.1233 C.3     1  ZINC000590699876   -0.1400
     31 C31       -10.3724   -1.2525   52.4412 C.3     1  ZINC000590699876    0.0400
     32 C32        -8.9072   -0.8547   52.2700 C.3     1  ZINC000590699876    0.1200
     33 H33        -0.6513    1.6614   50.9808 H       1  ZINC000590699876    0.1000
     34 H34        -0.5424    3.4343   51.0959 H       1  ZINC000590699876    0.0900
     35 H35        -1.2250    2.4951   52.4450 H       1  ZINC000590699876    0.0900
     36 H36        -2.9847    4.3972   51.7030 H       1  ZINC000590699876    0.4100
     37 H37        -4.9121    4.8982   50.4237 H       1  ZINC000590699876    0.1000
     38 H38        -4.6318    3.4100   49.4883 H       1  ZINC000590699876    0.1000
     39 H39        -7.3736    5.5529   51.1085 H       1  ZINC000590699876    0.0800
     40 H40        -7.0249    4.6650   49.5935 H       1  ZINC000590699876    0.0800
     41 H41        -9.5948    5.1631   50.2746 H       1  ZINC000590699876    0.0900
     42 H42        -9.1600    3.5450   49.6284 H       1  ZINC000590699876    0.0800
     43 H43        -9.5059    4.4015   52.5573 H       1  ZINC000590699876    0.1000
     44 H44       -10.1421    2.9346   51.7435 H       1  ZINC000590699876    0.0900
     45 H45        -8.7322    0.6203   54.7154 H       1  ZINC000590699876    0.0800
     46 H46        -9.2764    2.1257   53.9295 H       1  ZINC000590699876    0.0900
     47 H47       -11.1575    0.8087   54.9847 H       1  ZINC000590699876    0.0900
     48 H48       -11.3662    1.0647   53.2351 H       1  ZINC000590699876    0.0400
     49 H49       -12.9059   -0.6209   53.8585 H       1  ZINC000590699876    0.1000
     50 H50       -12.3695   -2.2549   53.3999 H       1  ZINC000590699876    0.0600
     51 H51       -14.3292   -2.2124   54.0672 H       1  ZINC000590699876    0.0800
     52 H52       -14.6503   -3.7644   54.8828 H       1  ZINC000590699876    0.0700
     53 H53       -15.6964   -1.0174   55.7101 H       1  ZINC000590699876    0.0700
     54 H54       -16.6523   -2.3587   55.0336 H       1  ZINC000590699876    0.0800
     55 H55       -16.8944   -2.2772   57.4921 H       1  ZINC000590699876    0.0700
     56 H56       -16.0485   -3.7628   56.9976 H       1  ZINC000590699876    0.0600
     57 H57       -14.7003   -1.2023   57.9700 H       1  ZINC000590699876    0.0700
     58 H58       -14.9311   -2.6784   58.9389 H       1  ZINC000590699876    0.0700
     59 H59       -12.4115   -2.6498   59.1753 H       1  ZINC000590699876    0.0400
     60 H60       -11.3866   -2.8636   57.7358 H       1  ZINC000590699876    0.0700
     61 H61       -12.2058   -1.3096   58.0221 H       1  ZINC000590699876    0.0700
     62 H62       -10.4772   -2.3285   52.3012 H       1  ZINC000590699876    0.1100
     63 H63       -10.9774   -0.7284   51.7013 H       1  ZINC000590699876    0.0300
     64 H64        -8.6017   -1.0182   51.2366 H       1  ZINC000590699876    0.0900
     65 H65        -8.2854   -1.4516   52.9373 H       1  ZINC000590699876    0.0800
@<TRIPOS>BOND
     1     1     2    1
     2     1    33    1
     3     1    34    1
     4     1    35    1
     5     2     3    2
     6     2     4   am
     7     4     5    1
     8     4    36    1
     9     5     6    1
    10     5    37    1
    11     5    38    1
    12     6     7    2
    13     6     8   am
    14     8    12    1
    15     8     9    1
    16     9    10    1
    17     9    39    1
    18     9    40    1
    19    10    11    1
    20    10    41    1
    21    10    42    1
    22    11    12    1
    23    11    43    1
    24    11    44    1
    25    12    13    1
    26    12    14    1
    27    14    15    2
    28    14    16   am
    29    16    32    1
    30    16    17    1
    31    17    18    1
    32    17    45    1
    33    17    46    1
    34    18    19    1
    35    18    47    1
    36    18    48    1
    37    19    20    1
    38    19    31    1
    39    20    21    1
    40    20    49    1
    41    20    50    1
    42    21    22    2
    43    21    23   am
    44    23    28    1
    45    23    24    1
    46    24    25    1
    47    24    51    1
    48    24    52    1
    49    25    26    1
    50    25    53    1
    51    25    54    1
    52    26    27    1
    53    26    55    1
    54    26    56    1
    55    27    28    1
    56    27    57    1
    57    27    58    1
    58    28    29    1
    59    28    30    1
    60    30    59    1
    61    30    60    1
    62    30    61    1
    63    31    32    1
    64    31    62    1
    65    31    63    1
    66    32    64    1
    67    32    65    1
@<TRIPOS>SUBSTRUCTURE
     1 ZINC000590699876        1 TEMP              0 ****  ****    0 ROOT


##########                                Name:    ZINC000740843182
##########                DOCK_Rotatable_Bonds:                  10
##########                         Heavy_Atoms:                  24
##########                    Molecular_Weight:              419.34
##########                DOCK_Rotatable_Bonds:                  10
##########                       Formal_Charge:          0.00999957
##########                     HBond_Acceptors:                   7
##########                        HBond_Donors:                   3
##########                         Heavy_Atoms:                  24
##########                          Grid_Score:          -33.579308
##########                     Grid_vdw_energy:          -32.496246
##########                      Grid_es_energy:           -1.083061
##########           Internal_energy_repulsive:           12.627507

@<TRIPOS>MOLECULE
ZINC000740843182
 47 48 1 0 0
SMALL
USER_CHARGES


@<TRIPOS>ATOM
      1 C1         -4.5540    2.5693   49.7907 C.3     1  ZINC000740843182   -0.1500
      2 C2         -4.5539    2.4972   51.3190 C.3     1  ZINC000740843182   -0.1000
      3 H3         -4.2004    1.5161   51.6363 H       1  ZINC000740843182    0.0900
      4 C4         -3.6287    3.5787   51.8804 C.3     1  ZINC000740843182    0.1200
      5 N5         -2.3214    2.9928   52.1860 N.am    1  ZINC000740843182   -0.7200
      6 C6         -1.2153    3.4542   51.5694 C.2     1  ZINC000740843182    0.5500
      7 O7         -1.3027    4.3555   50.7585 O.2     1  ZINC000740843182   -0.5000
      8 C8          0.1039    2.8641   51.8791 C.ar    1  ZINC000740843182   -0.1300
      9 C9          0.5893    1.7963   51.1226 C.ar    1  ZINC000740843182    0.0200
     10 C10         1.8216    1.2505   51.4166 C.ar    1  ZINC000740843182   -0.6800
     11 S11         2.4358   -0.0976   50.4625 S.o2    1  ZINC000740843182    2.7000
     12 O12         3.8462   -0.1014   50.6347 O.2     1  ZINC000740843182   -0.9400
     13 O13         1.6123   -1.2143   50.7693 O.2     1  ZINC000740843182   -0.9500
     14 N14         2.1601    0.2632   48.8699 N.am    1  ZINC000740843182   -1.0900
     15 C15         2.7560    1.4629   48.2769 C.3     1  ZINC000740843182    0.0800
     16 C16         4.1069    1.3079   47.5754 C.3     1  ZINC000740843182   -0.1800
     17 C17         2.8376    1.5305   46.7505 C.3     1  ZINC000740843182   -0.1900
     18 C18         2.5769    1.7591   52.4585 C.ar    1  ZINC000740843182    0.0100
     19 C19         2.1028    2.8172   53.2127 C.ar    1  ZINC000740843182   -0.1200
     20 C20         0.8733    3.3764   52.9266 C.ar    1  ZINC000740843182    0.0100
     21 Br21        0.2263    4.8229   53.9587 Br      1  ZINC000740843182    0.0100
     22 C22        -5.9749    2.7205   51.8403 C.3     1  ZINC000740843182   -0.1400
     23 C23        -6.8786    1.5829   51.3609 C.3     1  ZINC000740843182    0.1000
     24 H24        -6.9815    1.6326   50.2769 H       1  ZINC000740843182    0.1000
     25 C25        -8.2571    1.7181   52.0108 C.3     1  ZINC000740843182   -0.1900
     26 O26        -6.3004    0.3285   51.7273 O.3     1  ZINC000740843182   -0.5600
     27 H27        -5.2130    1.7987   49.3906 H       1  ZINC000740843182    0.0600
     28 H28        -4.9074    3.5503   49.4733 H       1  ZINC000740843182    0.0600
     29 H29        -3.5416    2.4102   49.4193 H       1  ZINC000740843182    0.0500
     30 H30        -3.5079    4.3722   51.1429 H       1  ZINC000740843182    0.0700
     31 H31        -4.0634    3.9919   52.7907 H       1  ZINC000740843182    0.0700
     32 H32        -2.2517    2.2727   52.8322 H       1  ZINC000740843182    0.4000
     33 H33         0.0012    1.3980   50.3090 H       1  ZINC000740843182    0.1500
     34 H34         1.6041   -0.3199   48.3299 H       1  ZINC000740843182    0.4200
     35 H35         2.5707    2.3939   48.8127 H       1  ZINC000740843182    0.1400
     36 H36         4.8106    2.1369   47.6498 H       1  ZINC000740843182    0.1100
     37 H37         4.5522    0.3132   47.5551 H       1  ZINC000740843182    0.1000
     38 H38         2.4479    0.6824   46.1877 H       1  ZINC000740843182    0.1000
     39 H39         2.7064    2.5060   46.2823 H       1  ZINC000740843182    0.1100
     40 H40         3.5410    1.3277   52.6839 H       1  ZINC000740843182    0.1600
     41 H41         2.6974    3.2094   54.0246 H       1  ZINC000740843182    0.1500
     42 H42        -5.9631    2.7406   52.9300 H       1  ZINC000740843182    0.0700
     43 H43        -6.3551    3.6700   51.4633 H       1  ZINC000740843182    0.0800
     44 H44        -8.6982    2.6749   51.7311 H       1  ZINC000740843182    0.0700
     45 H45        -8.9010    0.9076   51.6692 H       1  ZINC000740843182    0.0600
     46 H46        -8.1543    1.6684   53.0947 H       1  ZINC000740843182    0.0600
     47 H47        -6.1486    0.2278   52.6771 H       1  ZINC000740843182    0.3700
@<TRIPOS>BOND
     1     1     2    1
     2     1    27    1
     3     1    28    1
     4     1    29    1
     5     2     3    1
     6     2     4    1
     7     2    22    1
     8     4     5    1
     9     4    30    1
    10     4    31    1
    11     5     6   am
    12     5    32    1
    13     6     7    2
    14     6     8    1
    15     8    20   ar
    16     8     9   ar
    17     9    10   ar
    18     9    33    1
    19    10    11    1
    20    10    18   ar
    21    11    12    2
    22    11    13    2
    23    11    14   am
    24    14    15    1
    25    14    34    1
    26    15    17    1
    27    15    16    1
    28    15    35    1
    29    16    17    1
    30    16    36    1
    31    16    37    1
    32    17    38    1
    33    17    39    1
    34    18    19   ar
    35    18    40    1
    36    19    20   ar
    37    19    41    1
    38    20    21    1
    39    22    23    1
    40    22    42    1
    41    22    43    1
    42    23    24    1
    43    23    25    1
    44    23    26    1
    45    25    44    1
    46    25    45    1
    47    25    46    1
    48    26    47    1
@<TRIPOS>SUBSTRUCTURE
     1 ZINC000740843182        1 TEMP              0 ****  ****    0 ROOT


##########                                Name:    ZINC000550217006
##########                DOCK_Rotatable_Bonds:                   7
##########                         Heavy_Atoms:                  27
##########                    Molecular_Weight:             367.404
##########                DOCK_Rotatable_Bonds:                   7
##########                       Formal_Charge:          0.00999951
##########                     HBond_Acceptors:                   7
##########                        HBond_Donors:                   3
##########                         Heavy_Atoms:                  27
##########                          Grid_Score:          -33.574848
##########                     Grid_vdw_energy:          -30.610590
##########                      Grid_es_energy:           -2.964258
##########           Internal_energy_repulsive:           17.174360

@<TRIPOS>MOLECULE
ZINC000550217006
 48 50 1 0 0
SMALL
USER_CHARGES


@<TRIPOS>ATOM
      1 C1         -3.5418    2.9686   56.6967 C.3     1  ZINC000550217006   -0.1500
      2 C2         -4.4292    4.2115   56.6030 C.3     1  ZINC000550217006    0.0500
      3 O3         -5.8029    3.8204   56.6476 O.3     1  ZINC000550217006   -0.3100
      4 C4         -6.3118    3.2270   55.5359 C.ar    1  ZINC000550217006    0.1400
      5 C5         -5.5680    3.1906   54.3656 C.ar    1  ZINC000550217006   -0.2100
      6 C6         -6.0874    2.5862   53.2369 C.ar    1  ZINC000550217006   -0.0800
      7 C7         -7.3475    2.0187   53.2731 C.ar    1  ZINC000550217006   -0.1600
      8 C8         -8.0912    2.0541   54.4384 C.ar    1  ZINC000550217006   -0.0700
      9 C9         -7.5739    2.6516   55.5712 C.ar    1  ZINC000550217006   -0.1200
     10 C10        -8.3846    2.6894   56.8410 C.3     1  ZINC000550217006   -0.0800
     11 C11        -8.0306    1.4796   57.7083 C.3     1  ZINC000550217006    0.1300
     12 N12        -8.4668    1.7217   59.0856 N.am    1  ZINC000550217006   -0.7200
     13 C13        -8.7550    0.6824   59.8938 C.2     1  ZINC000550217006    0.5600
     14 O14        -8.6544   -0.4556   59.4795 O.2     1  ZINC000550217006   -0.5300
     15 C15        -9.1942    0.9271   61.2865 C.ar    1  ZINC000550217006   -0.0800
     16 C16       -10.0627    1.9834   61.5714 C.ar    1  ZINC000550217006   -0.1000
     17 C17       -10.4667    2.2077   62.8647 C.ar    1  ZINC000550217006   -0.0500
     18 C18       -10.0170    1.3847   63.9105 C.ar    1  ZINC000550217006   -0.1300
     19 C19        -9.1526    0.3271   63.6296 C.ar    1  ZINC000550217006    0.1800
     20 C20        -8.7482    0.1032   62.3123 C.ar    1  ZINC000550217006   -0.0900
     21 N21        -8.6694   -0.5398   64.5949 N.am    1  ZINC000550217006   -0.6600
     22 C22        -8.2601   -0.1943   65.8117 C.2     1  ZINC000550217006    0.5100
     23 O23        -7.8147   -1.0492   66.5475 O.2     1  ZINC000550217006   -0.5100
     24 C24        -8.3327    1.2257   66.3025 C.3     1  ZINC000550217006    0.0900
     25 N25        -9.7364    1.6336   66.3628 N.am    1  ZINC000550217006   -0.7100
     26 C26       -10.4913    1.6936   65.2672 C.2     1  ZINC000550217006    0.5600
     27 O27       -11.6529    2.0271   65.3981 O.2     1  ZINC000550217006   -0.5200
     28 H28        -3.7577    2.3041   55.8600 H       1  ZINC000550217006    0.0700
     29 H29        -2.4940    3.2669   56.6627 H       1  ZINC000550217006    0.0800
     30 H30        -3.7415    2.4493   57.6340 H       1  ZINC000550217006    0.0700
     31 H31        -4.2133    4.8759   57.4397 H       1  ZINC000550217006    0.0600
     32 H32        -4.2295    4.7308   55.6657 H       1  ZINC000550217006    0.0600
     33 H33        -4.5839    3.6345   54.3367 H       1  ZINC000550217006    0.1300
     34 H34        -5.5087    2.5577   52.3255 H       1  ZINC000550217006    0.1300
     35 H35        -7.7519    1.5471   52.3896 H       1  ZINC000550217006    0.1300
     36 H36        -9.0754    1.6103   54.4641 H       1  ZINC000550217006    0.1300
     37 H37        -8.1615    3.6058   57.3873 H       1  ZINC000550217006    0.0800
     38 H38        -9.4462    2.6621   56.5954 H       1  ZINC000550217006    0.0800
     39 H39        -8.5323    0.5939   57.3186 H       1  ZINC000550217006    0.0700
     40 H40        -6.9520    1.3233   57.6910 H       1  ZINC000550217006    0.0700
     41 H41        -8.5483    2.6302   59.4160 H       1  ZINC000550217006    0.4000
     42 H42       -10.4157    2.6230   60.7759 H       1  ZINC000550217006    0.1400
     43 H43       -11.1374    3.0262   63.0801 H       1  ZINC000550217006    0.1500
     44 H44        -8.0764   -0.7127   62.0900 H       1  ZINC000550217006    0.1500
     45 H45        -8.6261   -1.4808   64.3635 H       1  ZINC000550217006    0.4200
     46 H46        -7.8903    1.2916   67.2965 H       1  ZINC000550217006    0.1300
     47 H47        -7.7922    1.8774   65.6162 H       1  ZINC000550217006    0.1000
     48 H48       -10.1262    1.8652   67.2202 H       1  ZINC000550217006    0.4200
@<TRIPOS>BOND
     1     1     2    1
     2     1    28    1
     3     1    29    1
     4     1    30    1
     5     2     3    1
     6     2    31    1
     7     2    32    1
     8     3     4    1
     9     4     9   ar
    10     4     5   ar
    11     5     6   ar
    12     5    33    1
    13     6     7   ar
    14     6    34    1
    15     7     8   ar
    16     7    35    1
    17     8     9   ar
    18     8    36    1
    19     9    10    1
    20    10    11    1
    21    10    37    1
    22    10    38    1
    23    11    12    1
    24    11    39    1
    25    11    40    1
    26    12    13   am
    27    12    41    1
    28    13    14    2
    29    13    15    1
    30    15    20   ar
    31    15    16   ar
    32    16    17   ar
    33    16    42    1
    34    17    18   ar
    35    17    43    1
    36    18    26    1
    37    18    19   ar
    38    19    20   ar
    39    19    21    1
    40    20    44    1
    41    21    22   am
    42    21    45    1
    43    22    23    2
    44    22    24    1
    45    24    25    1
    46    24    46    1
    47    24    47    1
    48    25    26   am
    49    25    48    1
    50    26    27    2
@<TRIPOS>SUBSTRUCTURE
     1 ZINC000550217006        1 TEMP              0 ****  ****    0 ROOT


##########                                Name:    ZINC001386869844
##########                DOCK_Rotatable_Bonds:                   9
##########                         Heavy_Atoms:                  25
##########                    Molecular_Weight:             345.485
##########                DOCK_Rotatable_Bonds:                   9
##########                       Formal_Charge:          -0.0300003
##########                     HBond_Acceptors:                   5
##########                        HBond_Donors:                   2
##########                         Heavy_Atoms:                  25
##########                          Grid_Score:          -33.550961
##########                     Grid_vdw_energy:          -32.408321
##########                      Grid_es_energy:           -1.142639
##########           Internal_energy_repulsive:           30.845060

@<TRIPOS>MOLECULE
ZINC001386869844
 56 58 1 0 0
SMALL
USER_CHARGES


@<TRIPOS>ATOM
      1 C1        -16.3340   -3.4694   59.4104 C.3     1  ZINC001386869844    0.0600
      2 N2        -15.0334   -2.7976   59.3517 N.am    1  ZINC001386869844   -0.6200
      3 C3        -14.4510   -2.4411   58.0555 C.3     1  ZINC001386869844    0.1100
      4 C4        -14.2471   -3.7080   57.2223 C.3     1  ZINC001386869844    0.1000
      5 N5        -13.7142   -3.3463   55.9064 N.am    1  ZINC001386869844   -0.7300
      6 C6        -12.4049   -3.0590   55.7652 C.2     1  ZINC001386869844    0.5200
      7 O7        -11.6690   -3.0950   56.7285 O.2     1  ZINC001386869844   -0.5300
      8 C8        -11.8569   -2.6871   54.4116 C.3     1  ZINC001386869844   -0.1300
      9 C9        -12.0771   -1.1932   54.1653 C.3     1  ZINC001386869844   -0.0100
     10 C10       -13.4143   -0.9857   53.4516 C.3     1  ZINC001386869844   -0.1500
     11 C11       -12.0930   -0.4525   55.5040 C.3     1  ZINC001386869844   -0.1600
     12 C12       -10.9438   -0.6476   53.2940 C.3     1  ZINC001386869844   -0.1500
     13 C13       -11.3252   -0.0113   51.9559 C.3     1  ZINC001386869844   -0.1900
     14 C14       -10.6429   -1.3813   51.9855 C.3     1  ZINC001386869844   -0.1800
     15 C15       -14.3726   -2.5076   60.4900 C.2     1  ZINC001386869844    0.5900
     16 O16       -14.8564   -2.8037   61.5666 O.2     1  ZINC001386869844   -0.5200
     17 C17       -13.0704   -1.8351   60.4311 C.2     1  ZINC001386869844   -0.0600
     18 C18       -12.8464   -0.4791   60.5612 C.2     1  ZINC001386869844   -0.0900
     19 C19       -11.4734   -0.2804   60.4413 C.2     1  ZINC001386869844   -0.1700
     20 C20       -10.8886   -1.4917   60.2426 C.2     1  ZINC001386869844    0.0500
     21 C21        -9.4022   -1.6886   60.0617 C.3     1  ZINC001386869844   -0.0600
     22 C22        -8.7715   -0.3323   59.7251 C.3     1  ZINC001386869844   -0.1100
     23 C23        -9.2359    0.7143   60.7415 C.3     1  ZINC001386869844   -0.1200
     24 C24       -10.7203    1.0245   60.5134 C.3     1  ZINC001386869844   -0.0500
     25 N25       -11.8483   -2.4428   60.2419 N.pl3   1  ZINC001386869844   -0.5400
     26 H26       -16.1835   -4.5455   59.4973 H       1  ZINC001386869844    0.0600
     27 H27       -16.8901   -3.1092   60.2759 H       1  ZINC001386869844    0.0800
     28 H28       -16.8959   -3.2534   58.5018 H       1  ZINC001386869844    0.0900
     29 H29       -13.4904   -1.9503   58.2116 H       1  ZINC001386869844    0.1000
     30 H30       -15.1236   -1.7641   57.5289 H       1  ZINC001386869844    0.0900
     31 H31       -15.2016   -4.2196   57.0996 H       1  ZINC001386869844    0.0700
     32 H32       -13.5438   -4.3677   57.7303 H       1  ZINC001386869844    0.0700
     33 H33       -14.3037   -3.3136   55.1367 H       1  ZINC001386869844    0.4000
     34 H34       -10.7899   -2.9073   54.3786 H       1  ZINC001386869844    0.0900
     35 H35       -12.3706   -3.2619   53.6411 H       1  ZINC001386869844    0.0900
     36 H36       -14.2216   -1.3744   54.0723 H       1  ZINC001386869844    0.0800
     37 H37       -13.5712    0.0787   53.2761 H       1  ZINC001386869844    0.0500
     38 H38       -13.4030   -1.5134   52.4978 H       1  ZINC001386869844    0.0500
     39 H39       -11.1403   -0.6003   56.0124 H       1  ZINC001386869844    0.0500
     40 H40       -12.2498    0.6118   55.3285 H       1  ZINC001386869844    0.0500
     41 H41       -12.9003   -0.8412   56.1246 H       1  ZINC001386869844    0.0800
     42 H42       -10.1012   -0.2163   53.8344 H       1  ZINC001386869844    0.1000
     43 H43       -12.3834    0.0186   51.6962 H       1  ZINC001386869844    0.1000
     44 H44       -10.7333    0.8385   51.6158 H       1  ZINC001386869844    0.0900
     45 H45        -9.6023   -1.4322   51.6649 H       1  ZINC001386869844    0.0900
     46 H46       -11.2521   -2.2526   51.7454 H       1  ZINC001386869844    0.0900
     47 H47       -13.5941    0.2830   60.7245 H       1  ZINC001386869844    0.1500
     48 H48        -8.9685   -2.0764   60.9836 H       1  ZINC001386869844    0.0800
     49 H49        -9.2213   -2.3899   59.2470 H       1  ZINC001386869844    0.0800
     50 H50        -7.6855   -0.4176   59.7620 H       1  ZINC001386869844    0.0700
     51 H51        -9.0779   -0.0277   58.7244 H       1  ZINC001386869844    0.0700
     52 H52        -9.0964    0.3275   61.7509 H       1  ZINC001386869844    0.0600
     53 H53        -8.6509    1.6257   60.6175 H       1  ZINC001386869844    0.0700
     54 H54       -10.8417    1.5706   59.5780 H       1  ZINC001386869844    0.0700
     55 H55       -11.1016    1.6232   61.3407 H       1  ZINC001386869844    0.0700
     56 H56       -11.7015   -3.3946   60.1256 H       1  ZINC001386869844    0.4200
@<TRIPOS>BOND
     1     1     2    1
     2     1    26    1
     3     1    27    1
     4     1    28    1
     5     2     3    1
     6     2    15   am
     7     3     4    1
     8     3    29    1
     9     3    30    1
    10     4     5    1
    11     4    31    1
    12     4    32    1
    13     5     6   am
    14     5    33    1
    15     6     7    2
    16     6     8    1
    17     8     9    1
    18     8    34    1
    19     8    35    1
    20     9    10    1
    21     9    11    1
    22     9    12    1
    23    10    36    1
    24    10    37    1
    25    10    38    1
    26    11    39    1
    27    11    40    1
    28    11    41    1
    29    12    14    1
    30    12    13    1
    31    12    42    1
    32    13    14    1
    33    13    43    1
    34    13    44    1
    35    14    45    1
    36    14    46    1
    37    15    16    2
    38    15    17    1
    39    17    25    1
    40    17    18    2
    41    18    19    1
    42    18    47    1
    43    19    24    1
    44    19    20    2
    45    20    21    1
    46    20    25    1
    47    21    22    1
    48    21    48    1
    49    21    49    1
    50    22    23    1
    51    22    50    1
    52    22    51    1
    53    23    24    1
    54    23    52    1
    55    23    53    1
    56    24    54    1
    57    24    55    1
    58    25    56    1
@<TRIPOS>SUBSTRUCTURE
     1 ZINC001386869844        1 TEMP              0 ****  ****    0 ROOT


##########                                Name:    ZINC000482846390
##########                DOCK_Rotatable_Bonds:                   9
##########                         Heavy_Atoms:                  30
##########                    Molecular_Weight:             420.469
##########                DOCK_Rotatable_Bonds:                   9
##########                       Formal_Charge:          -0.0100011
##########                     HBond_Acceptors:                  11
##########                        HBond_Donors:                   2
##########                         Heavy_Atoms:                  30
##########                          Grid_Score:          -33.530186
##########                     Grid_vdw_energy:          -30.868910
##########                      Grid_es_energy:           -2.661277
##########           Internal_energy_repulsive:           24.288347

@<TRIPOS>MOLECULE
ZINC000482846390
 58 60 1 0 0
SMALL
USER_CHARGES


@<TRIPOS>ATOM
      1 C1        -11.0988   -1.5008   52.9478 C.3     1  ZINC000482846390   -0.1000
      2 C2        -10.0954   -0.4713   52.4958 C.2     1  ZINC000482846390    0.0900
      3 C3         -8.8141   -0.7115   52.1328 C.2     1  ZINC000482846390   -0.2700
      4 C4         -8.2295    0.5101   51.7833 C.2     1  ZINC000482846390    0.0700
      5 C5         -6.8106    0.7091   51.3161 C.3     1  ZINC000482846390   -0.0500
      6 C6         -6.3324    2.1057   51.7182 C.3     1  ZINC000482846390    0.1500
      7 H7         -6.9863    2.8558   51.2731 H       1  ZINC000482846390    0.1000
      8 C8         -4.9011    2.3174   51.2209 C.3     1  ZINC000482846390   -0.1700
      9 N9         -6.3663    2.2324   53.1773 N.am    1  ZINC000482846390   -0.6800
     10 C10        -6.7847    3.3812   53.7445 C.2     1  ZINC000482846390    0.5100
     11 O11        -7.1348    4.3100   53.0466 O.2     1  ZINC000482846390   -0.5200
     12 C12        -6.8175    3.5109   55.2330 C.2     1  ZINC000482846390    0.5100
     13 O13        -5.8133    3.8265   55.8368 O.2     1  ZINC000482846390   -0.5100
     14 N14        -7.9624    3.2776   55.9047 N.am    1  ZINC000482846390   -0.5900
     15 C15        -9.1846    2.8887   55.1871 C.3     1  ZINC000482846390    0.0500
     16 C16        -9.7022    1.5718   55.7785 C.3     1  ZINC000482846390    0.1000
     17 N17        -9.7508    1.7009   57.2416 N.am    1  ZINC000482846390   -0.6000
     18 C18       -10.8954    1.4667   57.9134 C.2     1  ZINC000482846390    0.5200
     19 O19       -11.8982    1.1460   57.3100 O.2     1  ZINC000482846390   -0.5000
     20 C20       -10.9298    1.6020   59.4014 C.2     1  ZINC000482846390    0.5200
     21 O21       -11.2653    2.6527   59.9074 O.2     1  ZINC000482846390   -0.5000
     22 N22       -10.5881    0.5572   60.1811 N.am    1  ZINC000482846390   -0.6000
     23 C23       -10.1721   -0.7247   59.5904 C.3     1  ZINC000482846390    0.0700
     24 C24        -8.8508   -1.1505   60.2405 C.3     1  ZINC000482846390    0.0500
     25 O25        -8.9959   -1.1241   61.6626 O.3     1  ZINC000482846390   -0.3700
     26 C26        -9.2766    0.1713   62.1983 C.3     1  ZINC000482846390    0.0500
     27 C27       -10.6142    0.6665   61.6483 C.3     1  ZINC000482846390    0.0700
     28 C28        -8.5285    2.0897   57.9593 C.3     1  ZINC000482846390    0.0900
     29 C29        -8.0096    3.4013   57.3684 C.3     1  ZINC000482846390    0.0900
     30 N30        -9.1275    1.4501   51.9311 N.2     1  ZINC000482846390   -0.2800
     31 N31       -10.3153    0.8547   52.3750 N.pl3   1  ZINC000482846390   -0.4700
     32 H32       -11.6381   -1.8867   52.0828 H       1  ZINC000482846390    0.0800
     33 H33       -10.5799   -2.3190   53.4473 H       1  ZINC000482846390    0.0900
     34 H34       -11.8040   -1.0412   53.6404 H       1  ZINC000482846390    0.0700
     35 H35        -8.3287   -1.6761   52.1162 H       1  ZINC000482846390    0.1500
     36 H36        -6.1679   -0.0415   51.7764 H       1  ZINC000482846390    0.0900
     37 H37        -6.7677    0.6085   50.2317 H       1  ZINC000482846390    0.1100
     38 H38        -4.8759    2.2233   50.1353 H       1  ZINC000482846390    0.0700
     39 H39        -4.5604    3.3124   51.5073 H       1  ZINC000482846390    0.0700
     40 H40        -4.2472    1.5675   51.6660 H       1  ZINC000482846390    0.0600
     41 H41        -6.0875    1.4895   53.7352 H       1  ZINC000482846390    0.4200
     42 H42        -9.9408    3.6649   55.3052 H       1  ZINC000482846390    0.0800
     43 H43        -8.9599    2.7515   54.1293 H       1  ZINC000482846390    0.1600
     44 H44       -10.7022    1.3670   55.3960 H       1  ZINC000482846390    0.1100
     45 H45        -9.0297    0.7587   55.5051 H       1  ZINC000482846390    0.0800
     46 H46       -10.9344   -1.4805   59.7792 H       1  ZINC000482846390    0.0900
     47 H47       -10.0309   -0.6053   58.5162 H       1  ZINC000482846390    0.0900
     48 H48        -8.5957   -2.1603   59.9193 H       1  ZINC000482846390    0.1100
     49 H49        -8.0598   -0.4621   59.9425 H       1  ZINC000482846390    0.0600
     50 H50        -9.3278    0.1123   63.2855 H       1  ZINC000482846390    0.1100
     51 H51        -8.4872    0.8644   61.9074 H       1  ZINC000482846390    0.0600
     52 H52       -10.7680    1.7061   61.9379 H       1  ZINC000482846390    0.1100
     53 H53       -11.4234    0.0517   62.0424 H       1  ZINC000482846390    0.0800
     54 H54        -8.7534    2.2270   59.0169 H       1  ZINC000482846390    0.0900
     55 H55        -7.7725    1.3135   57.8411 H       1  ZINC000482846390    0.0900
     56 H56        -7.0096    3.6048   57.7516 H       1  ZINC000482846390    0.1100
     57 H57        -8.6809    4.2159   57.6399 H       1  ZINC000482846390    0.0800
     58 H58       -11.1472    1.3151   52.5674 H       1  ZINC000482846390    0.4400
@<TRIPOS>BOND
     1     1     2    1
     2     1    32    1
     3     1    33    1
     4     1    34    1
     5     2    31    1
     6     2     3    2
     7     3     4    1
     8     3    35    1
     9     4     5    1
    10     4    30    2
    11     5     6    1
    12     5    36    1
    13     5    37    1
    14     6     7    1
    15     6     8    1
    16     6     9    1
    17     8    38    1
    18     8    39    1
    19     8    40    1
    20     9    10   am
    21     9    41    1
    22    10    11    2
    23    10    12    1
    24    12    13    2
    25    12    14   am
    26    14    29    1
    27    14    15    1
    28    15    16    1
    29    15    42    1
    30    15    43    1
    31    16    17    1
    32    16    44    1
    33    16    45    1
    34    17    18   am
    35    17    28    1
    36    18    19    2
    37    18    20    1
    38    20    21    2
    39    20    22   am
    40    22    27    1
    41    22    23    1
    42    23    24    1
    43    23    46    1
    44    23    47    1
    45    24    25    1
    46    24    48    1
    47    24    49    1
    48    25    26    1
    49    26    27    1
    50    26    50    1
    51    26    51    1
    52    27    52    1
    53    27    53    1
    54    28    29    1
    55    28    54    1
    56    28    55    1
    57    29    56    1
    58    29    57    1
    59    30    31    1
    60    31    58    1
@<TRIPOS>SUBSTRUCTURE
     1 ZINC000482846390        1 TEMP              0 ****  ****    0 ROOT


##########                                Name:    ZINC000790205345
##########                DOCK_Rotatable_Bonds:                   7
##########                         Heavy_Atoms:                  28
##########                    Molecular_Weight:             382.459
##########                DOCK_Rotatable_Bonds:                   7
##########                       Formal_Charge:          -0.0299997
##########                     HBond_Acceptors:                   6
##########                        HBond_Donors:                   0
##########                         Heavy_Atoms:                  28
##########                          Grid_Score:          -33.393486
##########                     Grid_vdw_energy:          -33.603062
##########                      Grid_es_energy:            0.209574
##########           Internal_energy_repulsive:           22.052048

@<TRIPOS>MOLECULE
ZINC000790205345
 54 56 1 0 0
SMALL
USER_CHARGES


@<TRIPOS>ATOM
      1 C1         -8.1810    2.8801   51.2508 C.3     1  ZINC000790205345   -0.1100
      2 C2         -8.9859    1.7090   51.7527 C.ar    1  ZINC000790205345   -0.1300
      3 C3        -10.3087    1.8849   52.1136 C.ar    1  ZINC000790205345   -0.0800
      4 C4        -11.0490    0.8129   52.5735 C.ar    1  ZINC000790205345   -0.2100
      5 C5        -10.4638   -0.4408   52.6730 C.ar    1  ZINC000790205345    0.1300
      6 O6        -11.1899   -1.4971   53.1246 O.3     1  ZINC000790205345   -0.2900
      7 C7        -12.1871   -1.2244   54.1112 C.3     1  ZINC000790205345    0.0400
      8 C8        -12.3211   -2.4105   55.0312 C.2     1  ZINC000790205345    0.5200
      9 O9        -11.3984   -3.1875   55.1571 O.2     1  ZINC000790205345   -0.5100
     10 N10       -13.4662   -2.6078   55.7139 N.am    1  ZINC000790205345   -0.6100
     11 C11       -14.5814   -1.6702   55.5603 C.3     1  ZINC000790205345    0.0700
     12 C12       -13.5959   -3.7598   56.6095 C.3     1  ZINC000790205345    0.1800
     13 H13       -12.6583   -4.3157   56.6246 H       1  ZINC000790205345    0.1200
     14 C14       -14.7203   -4.6696   56.1106 C.3     1  ZINC000790205345   -0.1600
     15 C15       -13.9179   -3.2803   58.0014 C.ar    1  ZINC000790205345   -0.0700
     16 C16       -15.1390   -3.5877   58.5725 C.ar    1  ZINC000790205345   -0.1300
     17 C17       -15.4385   -3.1491   59.8495 C.ar    1  ZINC000790205345   -0.0900
     18 C18       -14.5180   -2.4028   60.5583 C.ar    1  ZINC000790205345   -0.1500
     19 C19       -13.2904   -2.0927   59.9877 C.ar    1  ZINC000790205345    0.1800
     20 N20       -12.3551   -1.3367   60.7037 N.am    1  ZINC000790205345   -0.5700
     21 C21       -12.6362   -0.0824   61.4186 C.3     1  ZINC000790205345    0.0600
     22 C22       -11.2728    0.3115   62.0188 C.3     1  ZINC000790205345    0.0400
     23 O23       -10.3757   -0.7510   61.5837 O.3     1  ZINC000790205345   -0.3200
     24 C24       -11.0588   -1.6408   60.8547 C.2     1  ZINC000790205345    0.6400
     25 O25       -10.5486   -2.6300   60.3671 O.2     1  ZINC000790205345   -0.5000
     26 C26       -12.9907   -2.5389   58.7075 C.ar    1  ZINC000790205345   -0.1400
     27 C27        -9.1358   -0.6149   52.3101 C.ar    1  ZINC000790205345   -0.1500
     28 C28        -8.4016    0.4591   51.8458 C.ar    1  ZINC000790205345   -0.0500
     29 C29        -6.9595    0.2708   51.4510 C.3     1  ZINC000790205345   -0.1200
     30 H30        -8.2818    2.9529   50.1679 H       1  ZINC000790205345    0.0700
     31 H31        -8.5472    3.7971   51.7124 H       1  ZINC000790205345    0.0600
     32 H32        -7.1318    2.7372   51.5093 H       1  ZINC000790205345    0.0700
     33 H33       -10.7638    2.8613   52.0364 H       1  ZINC000790205345    0.1300
     34 H34       -12.0822    0.9509   52.8558 H       1  ZINC000790205345    0.1300
     35 H35       -11.8960   -0.3473   54.6893 H       1  ZINC000790205345    0.1000
     36 H36       -13.1418   -1.0356   53.6203 H       1  ZINC000790205345    0.0900
     37 H37       -15.1675   -1.9433   54.6828 H       1  ZINC000790205345    0.0600
     38 H38       -15.2143   -1.7102   56.4468 H       1  ZINC000790205345    0.0800
     39 H39       -14.1921   -0.6596   55.4371 H       1  ZINC000790205345    0.0700
     40 H40       -15.6578   -4.1138   56.0956 H       1  ZINC000790205345    0.0600
     41 H41       -14.4873   -5.0166   55.1040 H       1  ZINC000790205345    0.0700
     42 H42       -14.8167   -5.5269   56.7770 H       1  ZINC000790205345    0.0800
     43 H43       -15.8605   -4.1713   58.0201 H       1  ZINC000790205345    0.1300
     44 H44       -16.3934   -3.3902   60.2926 H       1  ZINC000790205345    0.1300
     45 H45       -14.7526   -2.0602   61.5554 H       1  ZINC000790205345    0.1300
     46 H46       -12.9851    0.6833   60.7258 H       1  ZINC000790205345    0.1000
     47 H47       -13.3688   -0.2478   62.2086 H       1  ZINC000790205345    0.1000
     48 H48       -10.9453    1.2734   61.6244 H       1  ZINC000790205345    0.1100
     49 H49       -11.3289    0.3426   63.1068 H       1  ZINC000790205345    0.1100
     50 H50       -12.0367   -2.2996   58.2611 H       1  ZINC000790205345    0.1600
     51 H51        -8.6778   -1.5898   52.3868 H       1  ZINC000790205345    0.1300
     52 H52        -6.9033    0.0091   50.3944 H       1  ZINC000790205345    0.0700
     53 H53        -6.4111    1.1965   51.6257 H       1  ZINC000790205345    0.0700
     54 H54        -6.5211   -0.5294   52.0473 H       1  ZINC000790205345    0.0700
@<TRIPOS>BOND
     1     1     2    1
     2     1    30    1
     3     1    31    1
     4     1    32    1
     5     2    28   ar
     6     2     3   ar
     7     3     4   ar
     8     3    33    1
     9     4     5   ar
    10     4    34    1
    11     5     6    1
    12     5    27   ar
    13     6     7    1
    14     7     8    1
    15     7    35    1
    16     7    36    1
    17     8     9    2
    18     8    10   am
    19    10    11    1
    20    10    12    1
    21    11    37    1
    22    11    38    1
    23    11    39    1
    24    12    13    1
    25    12    14    1
    26    12    15    1
    27    14    40    1
    28    14    41    1
    29    14    42    1
    30    15    26   ar
    31    15    16   ar
    32    16    17   ar
    33    16    43    1
    34    17    18   ar
    35    17    44    1
    36    18    19   ar
    37    18    45    1
    38    19    20    1
    39    19    26   ar
    40    20    24   am
    41    20    21    1
    42    21    22    1
    43    21    46    1
    44    21    47    1
    45    22    23    1
    46    22    48    1
    47    22    49    1
    48    23    24    1
    49    24    25    2
    50    26    50    1
    51    27    28   ar
    52    27    51    1
    53    28    29    1
    54    29    52    1
    55    29    53    1
    56    29    54    1
@<TRIPOS>SUBSTRUCTURE
     1 ZINC000790205345        1 TEMP              0 ****  ****    0 ROOT


##########                                Name:    ZINC001090961577
##########                DOCK_Rotatable_Bonds:                   9
##########                         Heavy_Atoms:                  24
##########                    Molecular_Weight:             352.458
##########                DOCK_Rotatable_Bonds:                   9
##########                       Formal_Charge:                0.02
##########                     HBond_Acceptors:                   8
##########                        HBond_Donors:                   1
##########                         Heavy_Atoms:                  24
##########                          Grid_Score:          -33.348366
##########                     Grid_vdw_energy:          -34.862045
##########                      Grid_es_energy:            1.513680
##########           Internal_energy_repulsive:            6.703222

@<TRIPOS>MOLECULE
ZINC001090961577
 48 49 1 0 0
SMALL
USER_CHARGES


@<TRIPOS>ATOM
      1 C1        -11.2262   -1.7681   52.4251 C.3     1  ZINC001090961577   -0.1400
      2 C2        -12.2927   -1.7569   53.5222 C.3     1  ZINC001090961577   -0.0900
      3 S3        -12.1745   -3.2829   54.4959 S.3     1  ZINC001090961577   -0.2700
      4 C4        -13.4942   -3.0861   55.7247 C.3     1  ZINC001090961577   -0.0700
      5 C5        -13.4450   -4.2498   56.7167 C.3     1  ZINC001090961577   -0.1200
      6 C6        -14.4676   -4.0288   57.8014 C.2     1  ZINC001090961577    0.5400
      7 O7        -15.4705   -4.7097   57.8372 O.2     1  ZINC001090961577   -0.5300
      8 N8        -14.2676   -3.0743   58.7318 N.am    1  ZINC001090961577   -0.6200
      9 C9        -15.1789   -2.7537   59.8401 C.3     1  ZINC001090961577    0.1100
     10 C10       -14.5254   -1.6190   60.6569 C.3     1  ZINC001090961577   -0.1100
     11 H11       -14.9136   -0.6485   60.3478 H       1  ZINC001090961577    0.0900
     12 C12       -14.7450   -1.8352   62.1555 C.3     1  ZINC001090961577   -0.1400
     13 C13       -13.0227   -1.7503   60.2937 C.3     1  ZINC001090961577    0.1500
     14 H14       -12.5404   -2.5185   60.8981 H       1  ZINC001090961577    0.1200
     15 N15       -12.3340   -0.4651   60.4356 N.pl3   1  ZINC001090961577   -0.6700
     16 C16       -11.4340   -0.2749   61.4630 C.ar    1  ZINC001090961577    0.5900
     17 N17       -11.8151    0.4079   62.5348 N.ar    1  ZINC001090961577   -0.5700
     18 C18       -10.9841    0.6118   63.5393 C.ar    1  ZINC001090961577    0.2700
     19 C19        -9.6836    0.0951   63.4610 C.ar    1  ZINC001090961577   -0.3000
     20 C20        -8.7216    0.2981   64.5595 C.2     1  ZINC001090961577    0.5300
     21 O21        -8.1769    1.3753   64.6988 O.2     1  ZINC001090961577   -0.5100
     22 O22        -8.4464   -0.7108   65.4091 O.3     1  ZINC001090961577   -0.3600
     23 C23        -7.8445   -0.3553   66.6819 C.3     1  ZINC001090961577    0.0400
     24 C24        -9.3218   -0.6200   62.3111 C.ar    1  ZINC001090961577    0.2600
     25 N25       -10.2138   -0.7845   61.3529 N.ar    1  ZINC001090961577   -0.5700
     26 C26       -13.0957   -2.1832   58.8104 C.3     1  ZINC001090961577    0.0900
     27 H27       -11.2972   -0.8512   51.8399 H       1  ZINC001090961577    0.0700
     28 H28       -10.2378   -1.8333   52.8799 H       1  ZINC001090961577    0.0700
     29 H29       -11.3838   -2.6279   51.7739 H       1  ZINC001090961577    0.0700
     30 H30       -12.1350   -0.8972   54.1734 H       1  ZINC001090961577    0.0800
     31 H31       -13.2811   -1.6918   53.0673 H       1  ZINC001090961577    0.0800
     32 H32       -13.3556   -2.1465   56.2595 H       1  ZINC001090961577    0.0900
     33 H33       -14.4611   -3.0784   55.2214 H       1  ZINC001090961577    0.0900
     34 H34       -13.6642   -5.1815   56.1952 H       1  ZINC001090961577    0.1000
     35 H35       -12.4511   -4.3071   57.1606 H       1  ZINC001090961577    0.1000
     36 H36       -16.1391   -2.4213   59.4460 H       1  ZINC001090961577    0.0800
     37 H37       -15.3185   -3.6316   60.4709 H       1  ZINC001090961577    0.0800
     38 H38       -14.3239   -2.7965   62.4495 H       1  ZINC001090961577    0.0600
     39 H39       -14.2541   -1.0376   62.7134 H       1  ZINC001090961577    0.0600
     40 H40       -15.8134   -1.8252   62.3713 H       1  ZINC001090961577    0.0700
     41 H41       -12.5110    0.2520   59.8068 H       1  ZINC001090961577    0.4200
     42 H42       -11.3013    1.1689   64.4086 H       1  ZINC001090961577    0.1800
     43 H43        -7.6754   -1.2582   67.2686 H       1  ZINC001090961577    0.1100
     44 H44        -6.8935    0.1474   66.5062 H       1  ZINC001090961577    0.0700
     45 H45        -8.5130    0.3118   67.2260 H       1  ZINC001090961577    0.0700
     46 H46        -8.3291   -1.0338   62.2127 H       1  ZINC001090961577    0.1800
     47 H47       -12.1891   -2.7173   58.5260 H       1  ZINC001090961577    0.0900
     48 H48       -13.2425   -1.3146   58.1685 H       1  ZINC001090961577    0.0800
@<TRIPOS>BOND
     1     1     2    1
     2     1    27    1
     3     1    28    1
     4     1    29    1
     5     2     3    1
     6     2    30    1
     7     2    31    1
     8     3     4    1
     9     4     5    1
    10     4    32    1
    11     4    33    1
    12     5     6    1
    13     5    34    1
    14     5    35    1
    15     6     7    2
    16     6     8   am
    17     8    26    1
    18     8     9    1
    19     9    10    1
    20     9    36    1
    21     9    37    1
    22    10    11    1
    23    10    12    1
    24    10    13    1
    25    12    38    1
    26    12    39    1
    27    12    40    1
    28    13    14    1
    29    13    15    1
    30    13    26    1
    31    15    16    1
    32    15    41    1
    33    16    25   ar
    34    16    17   ar
    35    17    18   ar
    36    18    19   ar
    37    18    42    1
    38    19    20    1
    39    19    24   ar
    40    20    21    2
    41    20    22    1
    42    22    23    1
    43    23    43    1
    44    23    44    1
    45    23    45    1
    46    24    25   ar
    47    24    46    1
    48    26    47    1
    49    26    48    1
@<TRIPOS>SUBSTRUCTURE
     1 ZINC001090961577        1 TEMP              0 ****  ****    0 ROOT


##########                                Name:    ZINC000564088286
##########                DOCK_Rotatable_Bonds:                   6
##########                         Heavy_Atoms:                  25
##########                    Molecular_Weight:             398.934
##########                DOCK_Rotatable_Bonds:                   6
##########                       Formal_Charge:               -0.05
##########                     HBond_Acceptors:                   8
##########                        HBond_Donors:                   1
##########                         Heavy_Atoms:                  25
##########                          Grid_Score:          -33.340656
##########                     Grid_vdw_energy:          -31.235203
##########                      Grid_es_energy:           -2.105454
##########           Internal_energy_repulsive:           16.511126

@<TRIPOS>MOLECULE
ZINC000564088286
 44 46 1 0 0
SMALL
USER_CHARGES


@<TRIPOS>ATOM
      1 C1         -5.2362    2.3256   65.5330 C.3     1  ZINC000564088286   -0.1600
      2 C2         -6.6552    2.1042   66.0605 C.3     1  ZINC000564088286    0.1100
      3 N3         -6.8944    0.6690   66.2308 N.am    1  ZINC000564088286   -1.1200
      4 S4         -8.4247    0.0589   66.0617 S.o2    1  ZINC000564088286    2.7000
      5 O5         -8.3029   -1.3551   66.1327 O.2     1  ZINC000564088286   -0.9600
      6 O6         -9.2557    0.8122   66.9342 O.2     1  ZINC000564088286   -0.9600
      7 C7         -8.9564    0.4308   64.4236 C.ar    1  ZINC000564088286   -0.6800
      8 C8         -9.8305    1.4786   64.2018 C.ar    1  ZINC000564088286   -0.0200
      9 C9        -10.2477    1.7704   62.9166 C.ar    1  ZINC000564088286   -0.1300
     10 C10        -9.7904    1.0148   61.8531 C.ar    1  ZINC000564088286   -0.0100
     11 C11       -10.2457    1.3326   60.4522 C.3     1  ZINC000564088286   -0.1100
     12 C12       -10.0708    0.1168   59.5792 C.2     1  ZINC000564088286    0.5200
     13 O13        -9.1847    0.0869   58.7516 O.2     1  ZINC000564088286   -0.5200
     14 N14       -10.8988   -0.9375   59.7183 N.am    1  ZINC000564088286   -0.6200
     15 C15       -11.9795   -0.9221   60.7156 C.3     1  ZINC000564088286    0.1200
     16 C16       -13.3227   -0.9595   59.9803 C.3     1  ZINC000564088286   -0.0700
     17 C17       -13.2626   -2.0114   58.8930 C.2     1  ZINC000564088286   -0.1600
     18 C18       -12.1316   -2.5371   58.3867 C.2     1  ZINC000564088286   -0.1200
     19 C19       -12.3490   -3.4812   57.3874 C.2     1  ZINC000564088286   -0.1100
     20 C20       -13.6234   -3.7236   57.0926 C.2     1  ZINC000564088286   -0.1500
     21 Cl21      -14.1766   -4.8510   55.8940 Cl      1  ZINC000564088286   -0.0100
     22 S22       -14.6610   -2.7282   58.1025 S.3     1  ZINC000564088286    0.1600
     23 C23       -10.7494   -2.1305   58.8729 C.3     1  ZINC000564088286    0.1700
     24 C24        -8.9153   -0.0321   62.0749 C.ar    1  ZINC000564088286   -0.1300
     25 C25        -8.4951   -0.3215   63.3596 C.ar    1  ZINC000564088286   -0.0200
     26 H26        -4.5167    1.9192   66.2438 H       1  ZINC000564088286    0.0600
     27 H27        -5.1228    1.8220   64.5730 H       1  ZINC000564088286    0.0600
     28 H28        -5.0582    3.3935   65.4062 H       1  ZINC000564088286    0.0700
     29 H29        -6.7686    2.6079   67.0205 H       1  ZINC000564088286    0.0800
     30 H30        -7.3747    2.5107   65.3497 H       1  ZINC000564088286    0.0700
     31 H31        -6.1566    0.0760   66.4426 H       1  ZINC000564088286    0.4200
     32 H32       -10.1876    2.0689   65.0326 H       1  ZINC000564088286    0.1400
     33 H33       -10.9311    2.5886   62.7435 H       1  ZINC000564088286    0.1300
     34 H34       -11.2969    1.6202   60.4682 H       1  ZINC000564088286    0.1100
     35 H35        -9.6502    2.1543   60.0542 H       1  ZINC000564088286    0.1100
     36 H36       -11.8923   -1.7944   61.3633 H       1  ZINC000564088286    0.0800
     37 H37       -11.9139   -0.0121   61.3122 H       1  ZINC000564088286    0.1100
     38 H38       -14.1169   -1.2081   60.6844 H       1  ZINC000564088286    0.0900
     39 H39       -13.5214    0.0150   59.5342 H       1  ZINC000564088286    0.0900
     40 H40       -11.5363   -3.9838   56.8840 H       1  ZINC000564088286    0.1500
     41 H41       -10.1099   -1.9036   58.0199 H       1  ZINC000564088286    0.1000
     42 H42       -10.3116   -2.9386   59.4588 H       1  ZINC000564088286    0.0900
     43 H43        -8.5579   -0.6221   61.2439 H       1  ZINC000564088286    0.1300
     44 H44        -7.8115   -1.1394   63.5328 H       1  ZINC000564088286    0.1400
@<TRIPOS>BOND
     1     1     2    1
     2     1    26    1
     3     1    27    1
     4     1    28    1
     5     2     3    1
     6     2    29    1
     7     2    30    1
     8     3     4   am
     9     3    31    1
    10     4     5    2
    11     4     6    2
    12     4     7    1
    13     7    25   ar
    14     7     8   ar
    15     8     9   ar
    16     8    32    1
    17     9    10   ar
    18     9    33    1
    19    10    11    1
    20    10    24   ar
    21    11    12    1
    22    11    34    1
    23    11    35    1
    24    12    13    2
    25    12    14   am
    26    14    23    1
    27    14    15    1
    28    15    16    1
    29    15    36    1
    30    15    37    1
    31    16    17    1
    32    16    38    1
    33    16    39    1
    34    17    22    1
    35    17    18    2
    36    18    19    1
    37    18    23    1
    38    19    20    2
    39    19    40    1
    40    20    21    1
    41    20    22    1
    42    23    41    1
    43    23    42    1
    44    24    25   ar
    45    24    43    1
    46    25    44    1
@<TRIPOS>SUBSTRUCTURE
     1 ZINC000564088286        1 TEMP              0 ****  ****    0 ROOT


##########                                Name:    ZINC000505965769
##########                DOCK_Rotatable_Bonds:                   9
##########                         Heavy_Atoms:                  29
##########                    Molecular_Weight:              419.88
##########                DOCK_Rotatable_Bonds:                   9
##########                       Formal_Charge:               -0.02
##########                     HBond_Acceptors:                   7
##########                        HBond_Donors:                   1
##########                         Heavy_Atoms:                  29
##########                          Grid_Score:          -33.312836
##########                     Grid_vdw_energy:          -33.477234
##########                      Grid_es_energy:            0.164396
##########           Internal_energy_repulsive:           17.424942

@<TRIPOS>MOLECULE
ZINC000505965769
 52 54 1 0 0
SMALL
USER_CHARGES


@<TRIPOS>ATOM
      1 C1        -11.9310   -1.1179   52.5350 C.3     1  ZINC000505965769    0.0200
      2 O2        -10.7322   -0.8601   53.2689 O.3     1  ZINC000505965769   -0.3100
      3 C3         -9.7764   -0.1242   52.6481 C.ar    1  ZINC000505965769    0.1800
      4 C4         -8.5931   -0.7296   52.2382 C.ar    1  ZINC000505965769   -0.2200
      5 C5         -7.6255    0.0033   51.6123 C.ar    1  ZINC000505965769   -0.0200
      6 C6         -7.8218    1.3703   51.3805 C.ar    1  ZINC000505965769   -0.2100
      7 C7         -6.7837    2.1599   50.7075 C.2     1  ZINC000505965769    0.3900
      8 O8         -6.8435    2.3453   49.5102 O.2     1  ZINC000505965769   -0.4400
      9 C9         -5.6437    2.7405   51.5039 C.3     1  ZINC000505965769   -0.1500
     10 C10        -5.1742    4.0410   50.8490 C.3     1  ZINC000505965769   -0.1300
     11 C11        -4.2171    4.7511   51.7714 C.2     1  ZINC000505965769    0.5200
     12 O12        -4.2549    5.9591   51.8713 O.2     1  ZINC000505965769   -0.5300
     13 N13        -3.3193    4.0434   52.4854 N.am    1  ZINC000505965769   -0.7200
     14 C14        -2.3901    4.7335   53.3834 C.3     1  ZINC000505965769    0.1900
     15 H15        -2.7759    5.7270   53.6121 H       1  ZINC000505965769    0.1100
     16 C16        -2.2457    3.9448   54.6595 C.ar    1  ZINC000505965769   -0.1000
     17 C17        -1.0886    4.0490   55.4086 C.ar    1  ZINC000505965769   -0.0900
     18 C18        -0.9551    3.3262   56.5789 C.ar    1  ZINC000505965769   -0.1500
     19 C19        -1.9810    2.4979   57.0013 C.ar    1  ZINC000505965769    0.1000
     20 F20        -1.8518    1.7912   58.1454 F       1  ZINC000505965769   -0.1400
     21 C21        -3.1398    2.3948   56.2504 C.ar    1  ZINC000505965769   -0.1500
     22 C22        -3.2730    3.1222   55.0829 C.ar    1  ZINC000505965769   -0.0600
     23 C23        -1.0246    4.8604   52.7050 C.3     1  ZINC000505965769    0.0800
     24 H24        -0.3333    5.4068   53.3467 H       1  ZINC000505965769    0.0700
     25 C25        -0.4562    3.4575   52.3737 C.3     1  ZINC000505965769   -0.1500
     26 C26         0.4986    3.7967   51.1967 C.3     1  ZINC000505965769   -0.1600
     27 C27        -0.2500    4.9462   50.4884 C.3     1  ZINC000505965769    0.0500
     28 O28        -1.1574    5.5226   51.4372 O.3     1  ZINC000505965769   -0.3700
     29 C29        -9.0143    1.9817   51.7933 C.ar    1  ZINC000505965769    0.0500
     30 Cl30       -9.2685    3.6756   51.5111 Cl      1  ZINC000505965769   -0.0200
     31 C31        -9.9858    1.2311   52.4192 C.ar    1  ZINC000505965769   -0.1600
     32 H32       -11.6885   -1.6627   51.6226 H       1  ZINC000505965769    0.0600
     33 H33       -12.6092   -1.7146   53.1451 H       1  ZINC000505965769    0.1100
     34 H34       -12.4098   -0.1731   52.2778 H       1  ZINC000505965769    0.0600
     35 H35        -8.4388   -1.7836   52.4159 H       1  ZINC000505965769    0.1400
     36 H36        -6.7083   -0.4716   51.2963 H       1  ZINC000505965769    0.1500
     37 H37        -5.9783    2.9459   52.5207 H       1  ZINC000505965769    0.1100
     38 H38        -4.8189    2.0283   51.5298 H       1  ZINC000505965769    0.1100
     39 H39        -4.6716    3.8136   49.9088 H       1  ZINC000505965769    0.1000
     40 H40        -6.0347    4.6815   50.6552 H       1  ZINC000505965769    0.1000
     41 H41        -3.2884    3.0773   52.4045 H       1  ZINC000505965769    0.4000
     42 H42        -0.2884    4.6951   55.0789 H       1  ZINC000505965769    0.1300
     43 H43        -0.0507    3.4071   57.1637 H       1  ZINC000505965769    0.1400
     44 H44        -3.9405    1.7488   56.5787 H       1  ZINC000505965769    0.1400
     45 H45        -4.1768    3.0422   54.4972 H       1  ZINC000505965769    0.1400
     46 H46         0.0940    3.0467   53.2202 H       1  ZINC000505965769    0.0700
     47 H47        -1.2471    2.7786   52.0549 H       1  ZINC000505965769    0.1000
     48 H48         1.4664    4.1343   51.5673 H       1  ZINC000505965769    0.0700
     49 H49         0.6136    2.9409   50.5316 H       1  ZINC000505965769    0.0800
     50 H50         0.4622    5.7007   50.1544 H       1  ZINC000505965769    0.0700
     51 H51        -0.8044    4.5558   49.6350 H       1  ZINC000505965769    0.0700
     52 H52       -10.9061    1.6971   52.7389 H       1  ZINC000505965769    0.1500
@<TRIPOS>BOND
     1     1     2    1
     2     1    32    1
     3     1    33    1
     4     1    34    1
     5     2     3    1
     6     3    31   ar
     7     3     4   ar
     8     4     5   ar
     9     4    35    1
    10     5     6   ar
    11     5    36    1
    12     6     7    1
    13     6    29   ar
    14     7     8    2
    15     7     9    1
    16     9    10    1
    17     9    37    1
    18     9    38    1
    19    10    11    1
    20    10    39    1
    21    10    40    1
    22    11    12    2
    23    11    13   am
    24    13    14    1
    25    13    41    1
    26    14    15    1
    27    14    16    1
    28    14    23    1
    29    16    22   ar
    30    16    17   ar
    31    17    18   ar
    32    17    42    1
    33    18    19   ar
    34    18    43    1
    35    19    20    1
    36    19    21   ar
    37    21    22   ar
    38    21    44    1
    39    22    45    1
    40    23    24    1
    41    23    28    1
    42    23    25    1
    43    25    26    1
    44    25    46    1
    45    25    47    1
    46    26    27    1
    47    26    48    1
    48    26    49    1
    49    27    28    1
    50    27    50    1
    51    27    51    1
    52    29    30    1
    53    29    31   ar
    54    31    52    1
@<TRIPOS>SUBSTRUCTURE
     1 ZINC000505965769        1 TEMP              0 ****  ****    0 ROOT


##########                                Name:    ZINC000479580180
##########                DOCK_Rotatable_Bonds:                   5
##########                         Heavy_Atoms:                  30
##########                    Molecular_Weight:             404.444
##########                DOCK_Rotatable_Bonds:                   5
##########                       Formal_Charge:           0.0299995
##########                     HBond_Acceptors:                   7
##########                        HBond_Donors:                   1
##########                         Heavy_Atoms:                  30
##########                          Grid_Score:          -33.306835
##########                     Grid_vdw_energy:          -33.044476
##########                      Grid_es_energy:           -0.262359
##########           Internal_energy_repulsive:           11.464837

@<TRIPOS>MOLECULE
ZINC000479580180
 51 55 1 0 0
SMALL
USER_CHARGES


@<TRIPOS>ATOM
      1 O1         -7.2700    0.7923   50.4247 O.2     1  ZINC000479580180   -0.5200
      2 C2         -7.0602    1.4943   51.3913 C.2     1  ZINC000479580180    0.5200
      3 C3         -7.8644    1.3016   52.6511 C.3     1  ZINC000479580180   -0.0700
      4 C4         -9.0162    0.3700   52.3744 C.2     1  ZINC000479580180   -0.1600
      5 C5         -8.9742   -0.9681   52.3238 C.2     1  ZINC000479580180    0.0300
      6 O6        -10.1960   -1.4602   52.0521 O.3     1  ZINC000479580180   -0.1900
      7 C7        -11.0948   -0.4652   51.9123 C.ar    1  ZINC000479580180    0.0800
      8 C8        -12.4555   -0.4385   51.6352 C.ar    1  ZINC000479580180   -0.1400
      9 C9        -13.1156    0.7716   51.5537 C.ar    1  ZINC000479580180    0.1300
     10 F10       -14.4394    0.7949   51.2845 F       1  ZINC000479580180   -0.1300
     11 C11       -12.4318    1.9653   51.7463 C.ar    1  ZINC000479580180   -0.1600
     12 C12       -11.0919    1.9586   52.0196 C.ar    1  ZINC000479580180   -0.0400
     13 C13       -10.4110    0.7461   52.1123 C.ar    1  ZINC000479580180   -0.1200
     14 N14        -6.1041    2.4429   51.3406 N.am    1  ZINC000479580180   -0.6200
     15 C15        -5.8304    3.2929   52.5073 C.3     1  ZINC000479580180    0.1100
     16 C16        -4.3361    3.2134   52.8353 C.3     1  ZINC000479580180   -0.1300
     17 C17        -3.5243    3.5756   51.5894 C.3     1  ZINC000479580180   -0.0100
     18 C18        -2.0542    3.5316   51.9178 C.2     1  ZINC000479580180    0.3000
     19 N19        -1.2122    2.6078   51.5369 N.2     1  ZINC000479580180   -0.5300
     20 C20         0.0103    2.8859   52.0094 C.2     1  ZINC000479580180    0.2700
     21 C21         1.2298    2.0697   51.7875 C.ar    1  ZINC000479580180   -0.0200
     22 C22         2.4850    2.5905   52.0951 C.ar    1  ZINC000479580180   -0.0800
     23 C23         3.6158    1.8269   51.8873 C.ar    1  ZINC000479580180   -0.1300
     24 C24         3.5047    0.5472   51.3742 C.ar    1  ZINC000479580180   -0.1000
     25 C25         2.2610    0.0254   51.0672 C.ar    1  ZINC000479580180   -0.1200
     26 C26         1.1231    0.7780   51.2765 C.ar    1  ZINC000479580180   -0.0800
     27 N27        -0.0493    4.0022   52.7017 N.2     1  ZINC000479580180   -0.3000
     28 N28        -1.3827    4.4397   52.6485 N.pl3   1  ZINC000479580180   -0.4800
     29 C29        -3.8275    2.5744   50.4723 C.3     1  ZINC000479580180   -0.1400
     30 C30        -5.3119    2.6427   50.1195 C.3     1  ZINC000479580180    0.1200
     31 H31        -7.2287    0.8731   53.4261 H       1  ZINC000479580180    0.1100
     32 H32        -8.2487    2.2645   52.9878 H       1  ZINC000479580180    0.1100
     33 H33        -8.0877   -1.5651   52.4786 H       1  ZINC000479580180    0.2100
     34 H34       -12.9955   -1.3615   51.4836 H       1  ZINC000479580180    0.1500
     35 H35       -12.9614    2.9042   51.6796 H       1  ZINC000479580180    0.1400
     36 H36       -10.5643    2.8892   52.1680 H       1  ZINC000479580180    0.1300
     37 H37        -6.1002    4.3241   52.2794 H       1  ZINC000479580180    0.0800
     38 H38        -6.4109    2.9410   53.3600 H       1  ZINC000479580180    0.0900
     39 H39        -4.1022    3.9129   53.6379 H       1  ZINC000479580180    0.0900
     40 H40        -4.0862    2.2004   53.1506 H       1  ZINC000479580180    0.0700
     41 H41        -3.7930    4.5793   51.2601 H       1  ZINC000479580180    0.1200
     42 H42         2.5730    3.5898   52.4951 H       1  ZINC000479580180    0.1400
     43 H43         4.5893    2.2294   52.1253 H       1  ZINC000479580180    0.1300
     44 H44         4.3922   -0.0467   51.2125 H       1  ZINC000479580180    0.1300
     45 H45         2.1799   -0.9743   50.6665 H       1  ZINC000479580180    0.1300
     46 H46         0.1526    0.3695   51.0365 H       1  ZINC000479580180    0.1300
     47 H47        -1.7488    5.2370   53.0624 H       1  ZINC000479580180    0.4400
     48 H48        -3.2316    2.8191   49.5931 H       1  ZINC000479580180    0.0900
     49 H49        -3.5824    1.5675   50.8098 H       1  ZINC000479580180    0.0700
     50 H50        -5.5514    1.8638   49.3954 H       1  ZINC000479580180    0.1000
     51 H51        -5.5426    3.6206   49.6970 H       1  ZINC000479580180    0.0800
@<TRIPOS>BOND
     1     1     2    2
     2     2     3    1
     3     2    14   am
     4     3     4    1
     5     3    31    1
     6     3    32    1
     7     4    13    1
     8     4     5    2
     9     5     6    1
    10     5    33    1
    11     6     7    1
    12     7    13   ar
    13     7     8   ar
    14     8     9   ar
    15     8    34    1
    16     9    10    1
    17     9    11   ar
    18    11    12   ar
    19    11    35    1
    20    12    13   ar
    21    12    36    1
    22    14    30    1
    23    14    15    1
    24    15    16    1
    25    15    37    1
    26    15    38    1
    27    16    17    1
    28    16    39    1
    29    16    40    1
    30    17    18    1
    31    17    29    1
    32    17    41    1
    33    18    28    1
    34    18    19    2
    35    19    20    1
    36    20    21    1
    37    20    27    2
    38    21    26   ar
    39    21    22   ar
    40    22    23   ar
    41    22    42    1
    42    23    24   ar
    43    23    43    1
    44    24    25   ar
    45    24    44    1
    46    25    26   ar
    47    25    45    1
    48    26    46    1
    49    27    28    1
    50    28    47    1
    51    29    30    1
    52    29    48    1
    53    29    49    1
    54    30    50    1
    55    30    51    1
@<TRIPOS>SUBSTRUCTURE
     1 ZINC000479580180        1 TEMP              0 ****  ****    0 ROOT


##########                                Name:    ZINC000995593866
##########                DOCK_Rotatable_Bonds:                   7
##########                         Heavy_Atoms:                  24
##########                    Molecular_Weight:             342.389
##########                DOCK_Rotatable_Bonds:                   7
##########                       Formal_Charge:                0.03
##########                     HBond_Acceptors:                   8
##########                        HBond_Donors:                   1
##########                         Heavy_Atoms:                  24
##########                          Grid_Score:          -33.300716
##########                     Grid_vdw_energy:          -30.148520
##########                      Grid_es_energy:           -3.152197
##########           Internal_energy_repulsive:            8.989273

@<TRIPOS>MOLECULE
ZINC000995593866
 48 50 1 0 0
SMALL
USER_CHARGES


@<TRIPOS>ATOM
      1 C1         -9.2980    1.2530   59.4472 C.3     1  ZINC000995593866   -0.1400
      2 C2        -10.2550    0.5463   60.4094 C.3     1  ZINC000995593866   -0.0800
      3 C3        -10.8349    1.5466   61.4115 C.3     1  ZINC000995593866   -0.1400
      4 C4        -11.3883   -0.1492   59.6249 C.3     1  ZINC000995593866    0.1200
      5 N5        -10.9231   -1.5454   59.4552 N.am    1  ZINC000995593866   -0.6300
      6 C6        -11.0535   -2.3342   58.3701 C.2     1  ZINC000995593866    0.5400
      7 O7        -10.6144   -3.4646   58.3858 O.2     1  ZINC000995593866   -0.5300
      8 C8        -11.7448   -1.8114   57.1373 C.3     1  ZINC000995593866   -0.1300
      9 C9        -12.2869   -2.9857   56.3199 C.3     1  ZINC000995593866   -0.1000
     10 C10       -13.5016   -3.6753   56.9633 C.3     1  ZINC000995593866   -0.1300
     11 C11       -14.0927   -3.7803   55.5476 C.3     1  ZINC000995593866   -0.1400
     12 C12       -13.2301   -2.5608   55.1821 C.3     1  ZINC000995593866   -0.1400
     13 C13       -10.2823   -1.8781   60.7487 C.3     1  ZINC000995593866    0.1100
     14 C14        -9.5257   -0.5936   61.1505 C.3     1  ZINC000995593866    0.0800
     15 H15        -8.4858   -0.6502   60.8290 H       1  ZINC000995593866    0.0700
     16 N16        -9.5998   -0.3905   62.6035 N.3     1  ZINC000995593866   -0.6800
     17 C17        -8.2659   -0.1502   63.1701 C.3     1  ZINC000995593866    0.1500
     18 C18        -8.3685   -0.0473   64.6700 C.2     1  ZINC000995593866    0.1900
     19 N19        -8.5776    1.0446   65.3654 N.2     1  ZINC000995593866   -0.4300
     20 C20        -8.5919    0.6566   66.6532 C.2     1  ZINC000995593866    0.0900
     21 C21        -8.7993    1.5474   67.8508 C.3     1  ZINC000995593866    0.3800
     22 F22        -7.5622    2.0245   68.2970 F       1  ZINC000995593866   -0.1800
     23 F23        -9.6141    2.6270   67.4934 F       1  ZINC000995593866   -0.1700
     24 N24        -8.3943   -0.6276   66.6748 N.2     1  ZINC000995593866   -0.3400
     25 O25        -8.2694   -1.0523   65.5454 O.3     1  ZINC000995593866    0.1000
     26 H26        -8.9230    0.5366   58.7163 H       1  ZINC000995593866    0.0600
     27 H27        -9.8270    2.0546   58.9320 H       1  ZINC000995593866    0.0600
     28 H28        -8.4620    1.6711   60.0080 H       1  ZINC000995593866    0.0600
     29 H29       -11.3685    2.3309   60.8746 H       1  ZINC000995593866    0.0700
     30 H30       -11.5234    1.0319   62.0816 H       1  ZINC000995593866    0.0700
     31 H31       -10.0258    1.9897   61.9921 H       1  ZINC000995593866    0.0600
     32 H32       -12.3164   -0.1245   60.1959 H       1  ZINC000995593866    0.0800
     33 H33       -11.5256    0.3264   58.6538 H       1  ZINC000995593866    0.0900
     34 H34       -12.5694   -1.1618   57.4311 H       1  ZINC000995593866    0.0900
     35 H35       -11.0342   -1.2462   56.5342 H       1  ZINC000995593866    0.0900
     36 H36       -11.5064   -3.6779   56.0045 H       1  ZINC000995593866    0.1000
     37 H37       -13.2684   -4.6411   57.4117 H       1  ZINC000995593866    0.0700
     38 H38       -14.0715   -3.0256   57.6274 H       1  ZINC000995593866    0.0800
     39 H39       -13.8067   -4.6909   55.0213 H       1  ZINC000995593866    0.0800
     40 H40       -15.1644   -3.5852   55.5063 H       1  ZINC000995593866    0.0700
     41 H41       -13.7259   -1.6064   55.3592 H       1  ZINC000995593866    0.0800
     42 H42       -12.7779   -2.6267   54.1925 H       1  ZINC000995593866    0.0700
     43 H43       -11.0377   -2.1234   61.4952 H       1  ZINC000995593866    0.0900
     44 H44        -9.5852   -2.7069   60.6255 H       1  ZINC000995593866    0.0800
     45 H45       -10.2307    0.3630   62.8316 H       1  ZINC000995593866    0.3600
     46 H46        -7.6051   -0.9760   62.9069 H       1  ZINC000995593866    0.1200
     47 H47        -7.8630    0.7797   62.7689 H       1  ZINC000995593866    0.0800
     48 H48        -9.2784    0.9789   68.6479 H       1  ZINC000995593866    0.1500
@<TRIPOS>BOND
     1     1     2    1
     2     1    26    1
     3     1    27    1
     4     1    28    1
     5     2    14    1
     6     2     3    1
     7     2     4    1
     8     3    29    1
     9     3    30    1
    10     3    31    1
    11     4     5    1
    12     4    32    1
    13     4    33    1
    14     5     6   am
    15     5    13    1
    16     6     7    2
    17     6     8    1
    18     8     9    1
    19     8    34    1
    20     8    35    1
    21     9    12    1
    22     9    10    1
    23     9    36    1
    24    10    11    1
    25    10    37    1
    26    10    38    1
    27    11    12    1
    28    11    39    1
    29    11    40    1
    30    12    41    1
    31    12    42    1
    32    13    14    1
    33    13    43    1
    34    13    44    1
    35    14    15    1
    36    14    16    1
    37    16    17    1
    38    16    45    1
    39    17    18    1
    40    17    46    1
    41    17    47    1
    42    18    25    1
    43    18    19    2
    44    19    20    1
    45    20    21    1
    46    20    24    2
    47    21    22    1
    48    21    23    1
    49    21    48    1
    50    24    25    1
@<TRIPOS>SUBSTRUCTURE
     1 ZINC000995593866        1 TEMP              0 ****  ****    0 ROOT


##########                                Name:    ZINC000523863446
##########                DOCK_Rotatable_Bonds:                  10
##########                         Heavy_Atoms:                  29
##########                    Molecular_Weight:             396.533
##########                DOCK_Rotatable_Bonds:                  10
##########                       Formal_Charge:          -0.0200008
##########                     HBond_Acceptors:                   6
##########                        HBond_Donors:                   1
##########                         Heavy_Atoms:                  29
##########                          Grid_Score:          -33.292046
##########                     Grid_vdw_energy:          -31.227430
##########                      Grid_es_energy:           -2.064616
##########           Internal_energy_repulsive:           19.765751

@<TRIPOS>MOLECULE
ZINC000523863446
 61 63 1 0 0
SMALL
USER_CHARGES


@<TRIPOS>ATOM
      1 C1         -8.7455    3.1865   52.7595 C.3     1  ZINC000523863446   -0.1700
      2 C2         -8.6821    1.8841   53.5600 C.3     1  ZINC000523863446    0.1500
      3 H3         -7.6740    1.4732   53.5061 H       1  ZINC000523863446    0.1300
      4 C4         -9.0356    2.1609   54.9985 C.2     1  ZINC000523863446    0.5100
      5 O5        -10.1602    1.9466   55.3987 O.2     1  ZINC000523863446   -0.5100
      6 N6         -8.1019    2.6466   55.8404 N.am    1  ZINC000523863446   -0.6000
      7 C7         -6.7439    2.9072   55.3566 C.3     1  ZINC000523863446    0.0700
      8 C8         -8.4451    2.9141   57.2394 C.3     1  ZINC000523863446    0.1000
      9 C9         -8.6290    1.6088   57.9698 C.2     1  ZINC000523863446    0.5000
     10 O10        -7.6994    0.8371   58.0759 O.2     1  ZINC000523863446   -0.5200
     11 N11        -9.8265    1.2991   58.5050 N.am    1  ZINC000523863446   -0.7200
     12 C12       -10.0048    0.0310   59.2166 C.3     1  ZINC000523863446    0.1900
     13 H13        -9.3812   -0.7351   58.7557 H       1  ZINC000523863446    0.1000
     14 C14       -11.4728   -0.3936   59.1420 C.3     1  ZINC000523863446   -0.1200
     15 C15       -11.6600   -1.3821   57.9893 C.3     1  ZINC000523863446   -0.0900
     16 C16       -11.3708   -2.8013   58.4826 C.3     1  ZINC000523863446   -0.1200
     17 C17       -11.5580   -3.7899   57.3300 C.3     1  ZINC000523863446   -0.1200
     18 C18       -12.9979   -3.7110   56.8190 C.3     1  ZINC000523863446   -0.1200
     19 C19       -13.2870   -2.2918   56.3257 C.3     1  ZINC000523863446   -0.1200
     20 C20       -13.1000   -1.3033   57.4784 C.3     1  ZINC000523863446   -0.1100
     21 C21        -9.6046    0.2039   60.6591 C.ar    1  ZINC000523863446   -0.0900
     22 C22       -10.1519    1.2271   61.4104 C.ar    1  ZINC000523863446   -0.1100
     23 C23        -9.7848    1.3856   62.7337 C.ar    1  ZINC000523863446   -0.1200
     24 C24        -8.8706    0.5207   63.3057 C.ar    1  ZINC000523863446   -0.1200
     25 C25        -8.3240   -0.5030   62.5547 C.ar    1  ZINC000523863446   -0.1200
     26 C26        -8.6944   -0.6642   61.2327 C.ar    1  ZINC000523863446   -0.1000
     27 N27        -9.6328    0.9201   53.0002 N.pl3   1  ZINC000523863446   -0.3600
     28 C28       -10.8342    1.2125   52.4595 C.2     1  ZINC000523863446    0.0600
     29 C29       -11.4009    0.0500   52.0610 C.2     1  ZINC000523863446   -0.2700
     30 C30       -10.5156   -0.9881   52.3689 C.2     1  ZINC000523863446    0.0500
     31 N31        -9.4528   -0.4670   52.9264 N.2     1  ZINC000523863446   -0.2900
     32 H32        -9.7536    3.5974   52.8133 H       1  ZINC000523863446    0.0700
     33 H33        -8.0381    3.9036   53.1759 H       1  ZINC000523863446    0.1000
     34 H34        -8.4898    2.9863   51.7190 H       1  ZINC000523863446    0.0800
     35 H35        -6.6801    3.9305   54.9863 H       1  ZINC000523863446    0.0700
     36 H36        -6.0349    2.7716   56.1734 H       1  ZINC000523863446    0.0800
     37 H37        -6.5061    2.2136   54.5502 H       1  ZINC000523863446    0.0800
     38 H38        -7.6419    3.4827   57.7081 H       1  ZINC000523863446    0.1100
     39 H39        -9.3704    3.4884   57.2830 H       1  ZINC000523863446    0.1100
     40 H40       -10.5703    1.9158   58.4190 H       1  ZINC000523863446    0.4000
     41 H41       -11.7616   -0.8694   60.0792 H       1  ZINC000523863446    0.0800
     42 H42       -12.0968    0.4840   58.9727 H       1  ZINC000523863446    0.0700
     43 H43       -10.9733   -1.1317   57.1807 H       1  ZINC000523863446    0.0700
     44 H44       -10.3450   -2.8576   58.8466 H       1  ZINC000523863446    0.0600
     45 H45       -12.0576   -3.0518   59.2912 H       1  ZINC000523863446    0.0600
     46 H46       -10.8712   -3.5394   56.5213 H       1  ZINC000523863446    0.0600
     47 H47       -11.3520   -4.8010   57.6814 H       1  ZINC000523863446    0.0600
     48 H48       -13.1312   -4.4153   55.9979 H       1  ZINC000523863446    0.0600
     49 H49       -13.6846   -3.9615   57.6276 H       1  ZINC000523863446    0.0600
     50 H50       -12.6003   -2.0413   55.5171 H       1  ZINC000523863446    0.0600
     51 H51       -14.3129   -2.2357   55.9617 H       1  ZINC000523863446    0.0600
     52 H52       -13.7866   -1.5538   58.2869 H       1  ZINC000523863446    0.0600
     53 H53       -13.3059   -0.2923   57.1269 H       1  ZINC000523863446    0.0600
     54 H54       -10.8661    1.9027   60.9635 H       1  ZINC000523863446    0.1200
     55 H55       -10.2118    2.1854   63.3204 H       1  ZINC000523863446    0.1200
     56 H56        -8.5833    0.6451   64.3393 H       1  ZINC000523863446    0.1200
     57 H57        -7.6096   -1.1785   63.0015 H       1  ZINC000523863446    0.1200
     58 H58        -8.2673   -1.4640   60.6458 H       1  ZINC000523863446    0.1200
     59 H59       -11.2661    2.1975   52.3624 H       1  ZINC000523863446    0.1700
     60 H60       -12.3665   -0.0572   51.5893 H       1  ZINC000523863446    0.1500
     61 H61       -10.6789   -2.0380   52.1751 H       1  ZINC000523863446    0.1800
@<TRIPOS>BOND
     1     1     2    1
     2     1    32    1
     3     1    33    1
     4     1    34    1
     5     2     3    1
     6     2     4    1
     7     2    27    1
     8     4     5    2
     9     4     6   am
    10     6     7    1
    11     6     8    1
    12     7    35    1
    13     7    36    1
    14     7    37    1
    15     8     9    1
    16     8    38    1
    17     8    39    1
    18     9    10    2
    19     9    11   am
    20    11    12    1
    21    11    40    1
    22    12    13    1
    23    12    14    1
    24    12    21    1
    25    14    15    1
    26    14    41    1
    27    14    42    1
    28    15    20    1
    29    15    16    1
    30    15    43    1
    31    16    17    1
    32    16    44    1
    33    16    45    1
    34    17    18    1
    35    17    46    1
    36    17    47    1
    37    18    19    1
    38    18    48    1
    39    18    49    1
    40    19    20    1
    41    19    50    1
    42    19    51    1
    43    20    52    1
    44    20    53    1
    45    21    26   ar
    46    21    22   ar
    47    22    23   ar
    48    22    54    1
    49    23    24   ar
    50    23    55    1
    51    24    25   ar
    52    24    56    1
    53    25    26   ar
    54    25    57    1
    55    26    58    1
    56    27    31    1
    57    27    28    1
    58    28    29    2
    59    28    59    1
    60    29    30    1
    61    29    60    1
    62    30    31    2
    63    30    61    1
@<TRIPOS>SUBSTRUCTURE
     1 ZINC000523863446        1 TEMP              0 ****  ****    0 ROOT


##########                                Name:    ZINC001362587626
##########                DOCK_Rotatable_Bonds:                   9
##########                         Heavy_Atoms:                  25
##########                    Molecular_Weight:             346.346
##########                DOCK_Rotatable_Bonds:                   9
##########                       Formal_Charge:        -4.02331e-07
##########                     HBond_Acceptors:                  10
##########                        HBond_Donors:                   2
##########                         Heavy_Atoms:                  25
##########                          Grid_Score:          -33.291962
##########                     Grid_vdw_energy:          -32.901127
##########                      Grid_es_energy:           -0.390834
##########           Internal_energy_repulsive:            8.855090

@<TRIPOS>MOLECULE
ZINC001362587626
 43 45 1 0 0
SMALL
USER_CHARGES


@<TRIPOS>ATOM
      1 C1        -12.5264   -0.8559   52.0039 C.3     1  ZINC001362587626   -0.1600
      2 C2        -11.2046   -1.2074   52.6896 C.3     1  ZINC001362587626    0.1300
      3 H3        -10.8046   -2.1252   52.2586 H       1  ZINC001362587626    0.1200
      4 N4        -11.4346   -1.4009   54.1235 N.am    1  ZINC001362587626   -0.7100
      5 C5        -11.8632   -2.5936   54.5822 C.2     1  ZINC001362587626    0.5100
      6 O6        -12.0569   -3.5070   53.8082 O.2     1  ZINC001362587626   -0.5000
      7 C7        -12.1016   -2.7921   56.0570 C.3     1  ZINC001362587626    0.1000
      8 N8        -13.2217   -3.7164   56.2504 N.pl3   1  ZINC001362587626   -0.3100
      9 C9        -14.2920   -3.8547   55.4461 C.2     1  ZINC001362587626    0.1600
     10 N10       -15.0473   -4.7827   55.9811 N.2     1  ZINC001362587626   -0.3000
     11 N11       -14.4709   -5.1930   57.0578 N.2     1  ZINC001362587626   -0.0700
     12 N12       -13.3648   -4.5546   57.2206 N.2     1  ZINC001362587626   -0.0700
     13 C13       -10.2192   -0.0857   52.4858 C.2     1  ZINC001362587626    0.5100
     14 O14       -10.6116    1.0595   52.4072 O.2     1  ZINC001362587626   -0.5200
     15 N15        -8.9019   -0.3547   52.3911 N.am    1  ZINC001362587626   -0.6600
     16 C16        -7.9859    0.6883   52.2017 C.ar    1  ZINC001362587626    0.1000
     17 C17        -7.6817    1.5448   53.2514 C.ar    1  ZINC001362587626   -0.1000
     18 C18        -6.7783    2.5722   53.0642 C.ar    1  ZINC001362587626   -0.1900
     19 C19        -6.1751    2.7492   51.8275 C.ar    1  ZINC001362587626    0.1200
     20 O20        -5.2860    3.7614   51.6438 O.3     1  ZINC001362587626   -0.2800
     21 C21        -3.9434    3.3947   51.3196 C.3     1  ZINC001362587626    0.0100
     22 C22        -3.0100    4.5971   51.0836 C.3     1  ZINC001362587626    0.0200
     23 O23        -2.7072    4.4936   52.4895 O.3     1  ZINC001362587626   -0.3700
     24 C24        -3.0653    3.0984   52.5500 C.3     1  ZINC001362587626    0.0400
     25 C25        -6.4782    1.8937   50.7784 C.ar    1  ZINC001362587626   -0.1300
     26 C26        -7.3774    0.8625   50.9658 C.ar    1  ZINC001362587626   -0.0800
     27 H27       -12.9265    0.0620   52.4349 H       1  ZINC001362587626    0.0700
     28 H28       -12.3553   -0.7119   50.9371 H       1  ZINC001362587626    0.0800
     29 H29       -13.2392   -1.6672   52.1512 H       1  ZINC001362587626    0.0800
     30 H30       -11.2786   -0.6708   54.7426 H       1  ZINC001362587626    0.4100
     31 H31       -11.2048   -3.2066   56.5174 H       1  ZINC001362587626    0.1500
     32 H32       -12.3375   -1.8336   56.5192 H       1  ZINC001362587626    0.1400
     33 H33       -14.4903   -3.3068   54.5367 H       1  ZINC001362587626    0.2400
     34 H34        -8.5882   -1.2703   52.4541 H       1  ZINC001362587626    0.4100
     35 H35        -8.1517    1.4076   54.2139 H       1  ZINC001362587626    0.1300
     36 H36        -6.5417    3.2385   53.8806 H       1  ZINC001362587626    0.1400
     37 H37        -3.8859    2.6315   50.5436 H       1  ZINC001362587626    0.0900
     38 H38        -2.1637    4.3774   50.4328 H       1  ZINC001362587626    0.1000
     39 H39        -3.5326    5.5142   50.8115 H       1  ZINC001362587626    0.1000
     40 H40        -3.6315    2.8267   53.4409 H       1  ZINC001362587626    0.1000
     41 H41        -2.2359    2.4209   52.3470 H       1  ZINC001362587626    0.1000
     42 H42        -6.0082    2.0319   49.8160 H       1  ZINC001362587626    0.1400
     43 H43        -7.6129    0.1962   50.1491 H       1  ZINC001362587626    0.1500
@<TRIPOS>BOND
     1     1     2    1
     2     1    27    1
     3     1    28    1
     4     1    29    1
     5     2     3    1
     6     2     4    1
     7     2    13    1
     8     4     5   am
     9     4    30    1
    10     5     6    2
    11     5     7    1
    12     7     8    1
    13     7    31    1
    14     7    32    1
    15     8    12    1
    16     8     9    1
    17     9    10    2
    18     9    33    1
    19    10    11    1
    20    11    12    2
    21    13    14    2
    22    13    15   am
    23    15    16    1
    24    15    34    1
    25    16    26   ar
    26    16    17   ar
    27    17    18   ar
    28    17    35    1
    29    18    19   ar
    30    18    36    1
    31    19    20    1
    32    19    25   ar
    33    20    21    1
    34    21    24    1
    35    21    22    1
    36    21    37    1
    37    22    23    1
    38    22    38    1
    39    22    39    1
    40    23    24    1
    41    24    40    1
    42    24    41    1
    43    25    26   ar
    44    25    42    1
    45    26    43    1
@<TRIPOS>SUBSTRUCTURE
     1 ZINC001362587626        1 TEMP              0 ****  ****    0 ROOT


##########                                Name:    ZINC000432058199
##########                DOCK_Rotatable_Bonds:                   5
##########                         Heavy_Atoms:                  30
##########                    Molecular_Weight:             406.441
##########                DOCK_Rotatable_Bonds:                   5
##########                       Formal_Charge:        -4.02331e-07
##########                     HBond_Acceptors:                   8
##########                        HBond_Donors:                   1
##########                         Heavy_Atoms:                  30
##########                          Grid_Score:          -33.248039
##########                     Grid_vdw_energy:          -31.859346
##########                      Grid_es_energy:           -1.388691
##########           Internal_energy_repulsive:           15.816640

@<TRIPOS>MOLECULE
ZINC000432058199
 52 55 1 0 0
SMALL
USER_CHARGES


@<TRIPOS>ATOM
      1 C1        -10.6682    2.3087   63.7368 C.3     1  ZINC000432058199    0.0300
      2 O2        -11.3004    1.6467   62.6393 O.3     1  ZINC000432058199   -0.3100
      3 C3        -10.6158    0.6278   62.0561 C.ar    1  ZINC000432058199    0.1300
      4 C4         -9.3833    0.2402   62.5632 C.ar    1  ZINC000432058199   -0.1900
      5 C5         -8.6836   -0.7958   61.9730 C.ar    1  ZINC000432058199   -0.0800
      6 C6         -9.2068   -1.4503   60.8761 C.ar    1  ZINC000432058199   -0.1100
      7 C7        -10.4439   -1.0675   60.3611 C.ar    1  ZINC000432058199    0.0100
      8 C8        -11.0089   -1.7701   59.1820 C.2     1  ZINC000432058199    0.2100
      9 N9        -10.5080   -2.8245   58.5932 N.2     1  ZINC000432058199   -0.3700
     10 O10       -11.2089   -3.1530   57.6593 O.3     1  ZINC000432058199    0.1200
     11 C11       -12.2514   -2.3228   57.5554 C.2     1  ZINC000432058199    0.1600
     12 C12       -13.3510   -2.3913   56.5272 C.3     1  ZINC000432058199    0.2500
     13 H13       -14.2296   -1.8642   56.8993 H       1  ZINC000432058199    0.1500
     14 C14       -13.7092   -3.8546   56.2602 C.3     1  ZINC000432058199   -0.1700
     15 N15       -12.8962   -1.7650   55.2833 N.am    1  ZINC000432058199   -0.5800
     16 C16       -13.5326   -0.7597   54.6715 C.2     1  ZINC000432058199    0.7000
     17 O17       -14.5598   -0.2590   55.0855 O.2     1  ZINC000432058199   -0.5100
     18 N18       -12.9086   -0.3651   53.5471 N.am    1  ZINC000432058199   -0.7200
     19 C19       -11.7158   -1.2180   53.4056 C.3     1  ZINC000432058199    0.1400
     20 H20       -11.7662   -1.7981   52.4842 H       1  ZINC000432058199    0.1400
     21 C21       -10.4609   -0.3842   53.4372 C.ar    1  ZINC000432058199   -0.1000
     22 C22        -9.5356   -0.4888   52.4154 C.ar    1  ZINC000432058199   -0.1000
     23 C23        -8.3845    0.2760   52.4445 C.ar    1  ZINC000432058199   -0.0800
     24 C24        -7.3757    0.1618   51.3308 C.3     1  ZINC000432058199   -0.1200
     25 C25        -8.1589    1.1459   53.4948 C.ar    1  ZINC000432058199   -0.1100
     26 C26        -9.0844    1.2507   54.5164 C.ar    1  ZINC000432058199   -0.0800
     27 C27        -8.8382    2.1988   55.6617 C.3     1  ZINC000432058199   -0.1200
     28 C28       -10.2375    0.4891   54.4852 C.ar    1  ZINC000432058199   -0.1000
     29 C29       -11.7819   -2.1267   54.6171 C.2     1  ZINC000432058199    0.5300
     30 O30       -10.9985   -3.0008   54.9206 O.2     1  ZINC000432058199   -0.4500
     31 N31       -12.1412   -1.4428   58.5192 N.2     1  ZINC000432058199   -0.4500
     32 C32       -11.1508   -0.0276   60.9590 C.ar    1  ZINC000432058199   -0.1200
     33 H33       -11.3202    3.0991   64.1086 H       1  ZINC000432058199    0.1000
     34 H34       -10.4778    1.5898   64.5338 H       1  ZINC000432058199    0.0600
     35 H35        -9.7246    2.7419   63.4051 H       1  ZINC000432058199    0.0600
     36 H36        -8.9697    0.7495   63.4210 H       1  ZINC000432058199    0.1400
     37 H37        -7.7247   -1.0936   62.3710 H       1  ZINC000432058199    0.1400
     38 H38        -8.6574   -2.2589   60.4169 H       1  ZINC000432058199    0.1400
     39 H39       -12.8307   -4.3816   55.8882 H       1  ZINC000432058199    0.0900
     40 H40       -14.0476   -4.3205   57.1857 H       1  ZINC000432058199    0.0900
     41 H41       -14.5046   -3.9040   55.5165 H       1  ZINC000432058199    0.0900
     42 H42       -13.1894    0.3427   52.9462 H       1  ZINC000432058199    0.4500
     43 H43        -9.7121   -1.1681   51.5946 H       1  ZINC000432058199    0.1200
     44 H44        -7.6157    0.8812   50.5479 H       1  ZINC000432058199    0.0700
     45 H45        -6.3790    0.3682   51.7208 H       1  ZINC000432058199    0.0700
     46 H46        -7.4026   -0.8467   50.9182 H       1  ZINC000432058199    0.0700
     47 H47        -7.2596    1.7434   53.5175 H       1  ZINC000432058199    0.1300
     48 H48        -9.2621    3.1742   55.4234 H       1  ZINC000432058199    0.0700
     49 H49        -9.3090    1.8085   56.5639 H       1  ZINC000432058199    0.0700
     50 H50        -7.7653    2.2992   55.8261 H       1  ZINC000432058199    0.0700
     51 H51       -10.9605    0.5710   55.2833 H       1  ZINC000432058199    0.1300
     52 H52       -12.1099    0.2727   60.5635 H       1  ZINC000432058199    0.1400
@<TRIPOS>BOND
     1     1     2    1
     2     1    33    1
     3     1    34    1
     4     1    35    1
     5     2     3    1
     6     3    32   ar
     7     3     4   ar
     8     4     5   ar
     9     4    36    1
    10     5     6   ar
    11     5    37    1
    12     6     7   ar
    13     6    38    1
    14     7     8    1
    15     7    32   ar
    16     8    31    1
    17     8     9    2
    18     9    10    1
    19    10    11    1
    20    11    12    1
    21    11    31    2
    22    12    13    1
    23    12    14    1
    24    12    15    1
    25    14    39    1
    26    14    40    1
    27    14    41    1
    28    15    29   am
    29    15    16   am
    30    16    17    2
    31    16    18   am
    32    18    19    1
    33    18    42    1
    34    19    20    1
    35    19    21    1
    36    19    29    1
    37    21    28   ar
    38    21    22   ar
    39    22    23   ar
    40    22    43    1
    41    23    24    1
    42    23    25   ar
    43    24    44    1
    44    24    45    1
    45    24    46    1
    46    25    26   ar
    47    25    47    1
    48    26    27    1
    49    26    28   ar
    50    27    48    1
    51    27    49    1
    52    27    50    1
    53    28    51    1
    54    29    30    2
    55    32    52    1
@<TRIPOS>SUBSTRUCTURE
     1 ZINC000432058199        1 TEMP              0 ****  ****    0 ROOT


##########                                Name:    ZINC001757264545
##########                DOCK_Rotatable_Bonds:                  11
##########                         Heavy_Atoms:                  25
##########                    Molecular_Weight:             344.497
##########                DOCK_Rotatable_Bonds:                  11
##########                       Formal_Charge:          0.00999946
##########                     HBond_Acceptors:                   4
##########                        HBond_Donors:                   2
##########                         Heavy_Atoms:                  25
##########                          Grid_Score:          -33.244297
##########                     Grid_vdw_energy:          -32.865387
##########                      Grid_es_energy:           -0.378911
##########           Internal_energy_repulsive:            8.998870

@<TRIPOS>MOLECULE
ZINC001757264545
 57 57 1 0 0
SMALL
USER_CHARGES


@<TRIPOS>ATOM
      1 C1        -10.3684   -2.8755   59.1081 C.1     1  ZINC001757264545   -0.2100
      2 C2         -9.8658   -2.0968   59.8288 C.1     1  ZINC001757264545   -0.1900
      3 C3         -9.2357   -1.1205   60.7324 C.3     1  ZINC001757264545   -0.0100
      4 C4         -9.5771    0.2973   60.2692 C.3     1  ZINC001757264545   -0.1200
      5 C5         -9.0185    0.5226   58.8628 C.3     1  ZINC001757264545   -0.1200
      6 C6         -9.4025    1.9227   58.3798 C.3     1  ZINC001757264545   -0.1000
      7 C7         -8.6842    2.2226   57.0625 C.3     1  ZINC001757264545   -0.1400
      8 C8         -9.6403    2.0294   55.9137 C.2     1  ZINC001757264545    0.5100
      9 O9        -10.0724    2.9922   55.3160 O.2     1  ZINC001757264545   -0.5400
     10 N10       -10.0151    0.7867   55.5506 N.am    1  ZINC001757264545   -0.7300
     11 C11       -10.9430    0.5989   54.4327 C.3     1  ZINC001757264545    0.1400
     12 H12       -11.3646    1.5619   54.1446 H       1  ZINC001757264545    0.1000
     13 C13       -12.0700   -0.3443   54.8583 C.3     1  ZINC001757264545   -0.1300
     14 C14       -13.0392   -0.5406   53.6908 C.3     1  ZINC001757264545   -0.1200
     15 C15       -12.2896   -1.1453   52.5019 C.3     1  ZINC001757264545   -0.1200
     16 C16       -11.1626   -0.2022   52.0763 C.3     1  ZINC001757264545   -0.1300
     17 C17       -10.1935   -0.0060   53.2439 C.3     1  ZINC001757264545    0.1400
     18 H18        -9.7720   -0.9690   53.5320 H       1  ZINC001757264545    0.1000
     19 N19        -9.1144    0.8971   52.8363 N.am    1  ZINC001757264545   -0.7200
     20 C20        -7.9503    0.3936   52.3804 C.2     1  ZINC001757264545    0.6400
     21 O21        -7.7962   -0.8104   52.3060 O.2     1  ZINC001757264545   -0.5200
     22 C22        -6.8948    1.2764   51.9836 C.1     1  ZINC001757264545   -0.2300
     23 C23        -6.0295    2.0001   51.6584 C.1     1  ZINC001757264545   -0.0500
     24 C24        -4.9446    2.9075   51.2506 C.3     1  ZINC001757264545    0.0300
     25 C25        -3.9558    3.0720   52.4065 C.3     1  ZINC001757264545   -0.1400
     26 C26        -4.2187    2.3217   50.0379 C.3     1  ZINC001757264545   -0.1400
     27 C27        -5.5317    4.2719   50.8836 C.3     1  ZINC001757264545   -0.1400
     28 H28       -10.8179   -3.5720   58.4636 H       1  ZINC001757264545    0.2200
     29 H29        -8.1544   -1.2569   60.7177 H       1  ZINC001757264545    0.0900
     30 H30        -9.6073   -1.2709   61.7459 H       1  ZINC001757264545    0.0900
     31 H31        -9.1356    1.0199   60.9554 H       1  ZINC001757264545    0.0700
     32 H32       -10.6595    0.4240   60.2548 H       1  ZINC001757264545    0.0700
     33 H33        -9.4330   -0.2223   58.1835 H       1  ZINC001757264545    0.0700
     34 H34        -7.9326    0.4307   58.8840 H       1  ZINC001757264545    0.0700
     35 H35        -9.1099    2.6585   59.1289 H       1  ZINC001757264545    0.0700
     36 H36       -10.4804    1.9707   58.2250 H       1  ZINC001757264545    0.0700
     37 H37        -7.8373    1.5460   56.9481 H       1  ZINC001757264545    0.0900
     38 H38        -8.3279    3.2527   57.0694 H       1  ZINC001757264545    0.0900
     39 H39        -9.6704    0.0168   56.0295 H       1  ZINC001757264545    0.4000
     40 H40       -11.6485   -1.3073   55.1465 H       1  ZINC001757264545    0.0700
     41 H41       -12.6040    0.0866   55.7053 H       1  ZINC001757264545    0.0800
     42 H42       -13.8421   -1.2125   53.9940 H       1  ZINC001757264545    0.0700
     43 H43       -13.4607    0.4225   53.4026 H       1  ZINC001757264545    0.0700
     44 H44       -12.9801   -1.2852   51.6702 H       1  ZINC001757264545    0.0700
     45 H45       -11.8681   -2.1084   52.7901 H       1  ZINC001757264545    0.0700
     46 H46       -11.5841    0.7609   51.7882 H       1  ZINC001757264545    0.0700
     47 H47       -10.6287   -0.6331   51.2293 H       1  ZINC001757264545    0.0800
     48 H48        -9.2377    1.8575   52.8946 H       1  ZINC001757264545    0.4000
     49 H49        -3.5375    2.1000   52.6679 H       1  ZINC001757264545    0.0600
     50 H50        -3.1524    3.7439   52.1045 H       1  ZINC001757264545    0.0700
     51 H51        -4.4730    3.4893   53.2704 H       1  ZINC001757264545    0.0600
     52 H52        -4.9230    2.2045   49.2144 H       1  ZINC001757264545    0.0600
     53 H53        -3.4153    2.9936   49.7358 H       1  ZINC001757264545    0.0700
     54 H54        -3.8004    1.3497   50.2994 H       1  ZINC001757264545    0.0600
     55 H55        -6.0489    4.6892   51.7475 H       1  ZINC001757264545    0.0600
     56 H56        -4.7283    4.9438   50.5815 H       1  ZINC001757264545    0.0700
     57 H57        -6.2362    4.1546   50.0601 H       1  ZINC001757264545    0.0600
@<TRIPOS>BOND
     1     1     2    3
     2     1    28    1
     3     2     3    1
     4     3     4    1
     5     3    29    1
     6     3    30    1
     7     4     5    1
     8     4    31    1
     9     4    32    1
    10     5     6    1
    11     5    33    1
    12     5    34    1
    13     6     7    1
    14     6    35    1
    15     6    36    1
    16     7     8    1
    17     7    37    1
    18     7    38    1
    19     8     9    2
    20     8    10   am
    21    10    11    1
    22    10    39    1
    23    11    12    1
    24    11    17    1
    25    11    13    1
    26    13    14    1
    27    13    40    1
    28    13    41    1
    29    14    15    1
    30    14    42    1
    31    14    43    1
    32    15    16    1
    33    15    44    1
    34    15    45    1
    35    16    17    1
    36    16    46    1
    37    16    47    1
    38    17    18    1
    39    17    19    1
    40    19    20   am
    41    19    48    1
    42    20    21    2
    43    20    22    1
    44    22    23    3
    45    23    24    1
    46    24    25    1
    47    24    26    1
    48    24    27    1
    49    25    49    1
    50    25    50    1
    51    25    51    1
    52    26    52    1
    53    26    53    1
    54    26    54    1
    55    27    55    1
    56    27    56    1
    57    27    57    1
@<TRIPOS>SUBSTRUCTURE
     1 ZINC001757264545        1 TEMP              0 ****  ****    0 ROOT


##########                                Name:    ZINC000671418508
##########                DOCK_Rotatable_Bonds:                   9
##########                         Heavy_Atoms:                  28
##########                    Molecular_Weight:             405.884
##########                DOCK_Rotatable_Bonds:                   9
##########                       Formal_Charge:         -1.3411e-07
##########                     HBond_Acceptors:                   9
##########                        HBond_Donors:                   2
##########                         Heavy_Atoms:                  28
##########                          Grid_Score:          -33.229557
##########                     Grid_vdw_energy:          -32.698696
##########                      Grid_es_energy:           -0.530859
##########           Internal_energy_repulsive:           19.862606

@<TRIPOS>MOLECULE
ZINC000671418508
 52 54 1 0 0
SMALL
USER_CHARGES


@<TRIPOS>ATOM
      1 C1        -11.1819   -1.4961   53.1997 C.3     1  ZINC000671418508    0.1000
      2 N2        -10.0850   -0.5710   52.9039 N.pl3   1  ZINC000671418508   -0.3700
      3 C3         -9.0152   -0.8318   52.1239 C.2     1  ZINC000671418508    0.0800
      4 C4         -8.2382    0.2760   52.1057 C.2     1  ZINC000671418508   -0.2700
      5 C5         -6.9390    0.4356   51.3588 C.3     1  ZINC000671418508    0.2000
      6 N6         -6.1550    1.5129   51.9677 N.am    1  ZINC000671418508   -0.6900
      7 C7         -5.6192    2.4770   51.1931 C.2     1  ZINC000671418508    0.5100
      8 O8         -5.7851    2.4519   49.9913 O.2     1  ZINC000671418508   -0.5100
      9 C9         -4.8208    3.5771   51.8144 C.2     1  ZINC000671418508    0.5100
     10 O10        -5.3291    4.3013   52.6449 O.2     1  ZINC000671418508   -0.5200
     11 N11        -3.5362    3.7649   51.4522 N.am    1  ZINC000671418508   -0.5800
     12 C12        -2.7309    4.8376   52.0556 C.3     1  ZINC000671418508    0.0800
     13 C13        -1.4173    4.2333   52.5629 C.3     1  ZINC000671418508    0.0400
     14 N14        -0.7618    3.5054   51.4682 N.3     1  ZINC000671418508   -0.5200
     15 C15         0.5800    3.0570   51.8634 C.3     1  ZINC000671418508    0.1300
     16 H16         0.4989    2.3563   52.6944 H       1  ZINC000671418508    0.0600
     17 C17         1.4150    4.2645   52.2943 C.3     1  ZINC000671418508    0.0900
     18 O18         1.4514    4.3338   53.7211 O.3     1  ZINC000671418508   -0.5500
     19 C19         1.2464    2.3764   50.6957 C.ar    1  ZINC000671418508   -0.0800
     20 C20         1.4670    1.0120   50.7250 C.ar    1  ZINC000671418508   -0.0600
     21 C21         2.0782    0.3873   49.6542 C.ar    1  ZINC000671418508   -0.1200
     22 C22         2.4692    1.1277   48.5528 C.ar    1  ZINC000671418508   -0.0300
     23 Cl23        3.2364    0.3437   47.2074 Cl      1  ZINC000671418508   -0.0700
     24 C24         2.2483    2.4931   48.5240 C.ar    1  ZINC000671418508   -0.1200
     25 C25         1.6319    3.1159   49.5930 C.ar    1  ZINC000671418508   -0.1100
     26 C26        -1.5822    2.3746   51.0139 C.3     1  ZINC000671418508    0.0400
     27 C27        -2.9008    2.8988   50.4476 C.3     1  ZINC000671418508    0.1100
     28 C28        -8.8544    1.2469   52.9017 C.2     1  ZINC000671418508    0.0700
     29 N29        -9.9647    0.7423   53.3759 N.2     1  ZINC000671418508   -0.2900
     30 H30       -11.9652   -1.3824   52.4501 H       1  ZINC000671418508    0.0800
     31 H31       -10.8083   -2.5199   53.1826 H       1  ZINC000671418508    0.0900
     32 H32       -11.5884   -1.2740   54.1864 H       1  ZINC000671418508    0.0900
     33 H33        -8.8147   -1.7587   51.6071 H       1  ZINC000671418508    0.1800
     34 H34        -6.3754   -0.4961   51.4072 H       1  ZINC000671418508    0.0800
     35 H35        -7.1465    0.6811   50.3173 H       1  ZINC000671418508    0.0800
     36 H36        -6.0213    1.5324   52.9282 H       1  ZINC000671418508    0.4100
     37 H37        -2.5179    5.6007   51.3071 H       1  ZINC000671418508    0.0800
     38 H38        -3.2764    5.2802   52.8891 H       1  ZINC000671418508    0.1400
     39 H39        -0.7618    5.0305   52.9135 H       1  ZINC000671418508    0.0900
     40 H40        -1.6257    3.5463   53.3831 H       1  ZINC000671418508    0.0400
     41 H41         2.4295    4.1606   51.9095 H       1  ZINC000671418508    0.0500
     42 H42         0.9675    5.1759   51.8976 H       1  ZINC000671418508    0.0500
     43 H43         1.3271    5.2251   54.0749 H       1  ZINC000671418508    0.3800
     44 H44         1.1620    0.4341   51.5849 H       1  ZINC000671418508    0.1400
     45 H45         2.2508   -0.6786   49.6774 H       1  ZINC000671418508    0.1300
     46 H46         2.5537    3.0717   47.6647 H       1  ZINC000671418508    0.1300
     47 H47         1.4590    4.1817   49.5705 H       1  ZINC000671418508    0.1300
     48 H48        -1.0462    1.8238   50.2410 H       1  ZINC000671418508    0.0900
     49 H49        -1.7884    1.7135   51.8557 H       1  ZINC000671418508    0.0400
     50 H50        -3.5584    2.0611   50.2154 H       1  ZINC000671418508    0.1000
     51 H51        -2.7071    3.4772   49.5441 H       1  ZINC000671418508    0.0800
     52 H52        -8.4809    2.2428   53.0887 H       1  ZINC000671418508    0.1900
@<TRIPOS>BOND
     1     1     2    1
     2     1    30    1
     3     1    31    1
     4     1    32    1
     5     2    29    1
     6     2     3    1
     7     3     4    2
     8     3    33    1
     9     4     5    1
    10     4    28    1
    11     5     6    1
    12     5    34    1
    13     5    35    1
    14     6     7   am
    15     6    36    1
    16     7     8    2
    17     7     9    1
    18     9    10    2
    19     9    11   am
    20    11    27    1
    21    11    12    1
    22    12    13    1
    23    12    37    1
    24    12    38    1
    25    13    14    1
    26    13    39    1
    27    13    40    1
    28    14    15    1
    29    14    26    1
    30    15    16    1
    31    15    17    1
    32    15    19    1
    33    17    18    1
    34    17    41    1
    35    17    42    1
    36    18    43    1
    37    19    25   ar
    38    19    20   ar
    39    20    21   ar
    40    20    44    1
    41    21    22   ar
    42    21    45    1
    43    22    23    1
    44    22    24   ar
    45    24    25   ar
    46    24    46    1
    47    25    47    1
    48    26    27    1
    49    26    48    1
    50    26    49    1
    51    27    50    1
    52    27    51    1
    53    28    29    2
    54    28    52    1
@<TRIPOS>SUBSTRUCTURE
     1 ZINC000671418508        1 TEMP              0 ****  ****    0 ROOT


##########                                Name:    ZINC000642096826
##########                DOCK_Rotatable_Bonds:                  12
##########                         Heavy_Atoms:                  25
##########                    Molecular_Weight:             345.485
##########                DOCK_Rotatable_Bonds:                  12
##########                       Formal_Charge:          0.00999919
##########                     HBond_Acceptors:                   5
##########                        HBond_Donors:                   1
##########                         Heavy_Atoms:                  25
##########                          Grid_Score:          -33.213768
##########                     Grid_vdw_energy:          -31.813494
##########                      Grid_es_energy:           -1.400273
##########           Internal_energy_repulsive:           17.919722

@<TRIPOS>MOLECULE
ZINC000642096826
 56 57 1 0 0
SMALL
USER_CHARGES


@<TRIPOS>ATOM
      1 C1        -14.8616   -4.5834   55.8965 C.3     1  ZINC000642096826   -0.1500
      2 C2        -14.6795   -4.4243   57.4074 C.3     1  ZINC000642096826   -0.1400
      3 C3        -14.8773   -2.9570   57.7931 C.3     1  ZINC000642096826    0.1200
      4 N4        -14.6265   -2.7910   59.2269 N.am    1  ZINC000642096826   -0.6200
      5 C5        -15.7118   -2.9975   60.1890 C.3     1  ZINC000642096826    0.1100
      6 C6        -16.0734   -1.6631   60.8443 C.3     1  ZINC000642096826   -0.1400
      7 C7        -16.5264   -0.6732   59.7693 C.3     1  ZINC000642096826   -0.1500
      8 C8        -13.3974   -2.4485   59.6609 C.2     1  ZINC000642096826    0.5200
      9 O9        -13.1895   -2.3127   60.8480 O.2     1  ZINC000642096826   -0.5200
     10 C10       -12.2813   -2.2344   58.6711 C.3     1  ZINC000642096826    0.0400
     11 N11       -10.9994   -2.1678   59.3854 N.3     1  ZINC000642096826   -0.5200
     12 C12       -10.0507   -3.1575   58.8578 C.3     1  ZINC000642096826    0.0100
     13 C13       -10.4340   -0.8132   59.3270 C.3     1  ZINC000642096826    0.0900
     14 C14       -10.0273   -0.3785   60.7115 C.ar    1  ZINC000642096826   -0.0500
     15 C15        -8.9438   -0.9762   61.3305 C.ar    1  ZINC000642096826   -0.1000
     16 C16        -8.5666   -0.5833   62.5980 C.ar    1  ZINC000642096826   -0.0600
     17 C17        -9.2803    0.4199   63.2557 C.ar    1  ZINC000642096826   -0.1400
     18 C18        -8.8814    0.8463   64.6139 C.2     1  ZINC000642096826    0.5600
     19 O19        -9.7307    1.1248   65.4376 O.2     1  ZINC000642096826   -0.5300
     20 N20        -7.5758    0.9263   64.9388 N.am    1  ZINC000642096826   -0.7000
     21 C21        -7.1803    1.3504   66.2842 C.3     1  ZINC000642096826    0.0800
     22 C22        -5.6838    1.4943   66.5683 C.3     1  ZINC000642096826   -0.1900
     23 C23        -6.5601    2.7412   66.4326 C.3     1  ZINC000642096826   -0.1900
     24 C24       -10.3720    1.0190   62.6253 C.ar    1  ZINC000642096826   -0.0900
     25 C25       -10.7355    0.6203   61.3556 C.ar    1  ZINC000642096826   -0.1200
     26 H26       -15.8660   -4.2663   55.6162 H       1  ZINC000642096826    0.0600
     27 H27       -14.1277   -3.9686   55.3755 H       1  ZINC000642096826    0.0600
     28 H28       -14.7206   -5.6287   55.6217 H       1  ZINC000642096826    0.0600
     29 H29       -15.4134   -5.0391   57.9285 H       1  ZINC000642096826    0.0600
     30 H30       -13.6750   -4.7415   57.6877 H       1  ZINC000642096826    0.0600
     31 H31       -14.1820   -2.3360   57.2284 H       1  ZINC000642096826    0.0800
     32 H32       -15.9001   -2.6563   57.5660 H       1  ZINC000642096826    0.0800
     33 H33       -16.5845   -3.3968   59.6722 H       1  ZINC000642096826    0.0800
     34 H34       -15.3891   -3.7028   60.9550 H       1  ZINC000642096826    0.0800
     35 H35       -16.8809   -1.8169   61.5601 H       1  ZINC000642096826    0.0700
     36 H36       -15.2008   -1.2639   61.3613 H       1  ZINC000642096826    0.0700
     37 H37       -16.7840    0.2775   60.2362 H       1  ZINC000642096826    0.0600
     38 H38       -15.7188   -0.5194   59.0535 H       1  ZINC000642096826    0.0600
     39 H39       -17.3991   -1.0724   59.2524 H       1  ZINC000642096826    0.0600
     40 H40       -12.2599   -3.0626   57.9629 H       1  ZINC000642096826    0.0600
     41 H41       -12.4466   -1.3008   58.1335 H       1  ZINC000642096826    0.1000
     42 H42        -9.8722   -2.9619   57.8005 H       1  ZINC000642096826    0.0200
     43 H43        -9.1103   -3.0866   59.4043 H       1  ZINC000642096826    0.0700
     44 H44       -10.4657   -4.1583   58.9773 H       1  ZINC000642096826    0.0900
     45 H45        -9.5609   -0.8119   58.6746 H       1  ZINC000642096826    0.0500
     46 H46       -11.1818   -0.1240   58.9348 H       1  ZINC000642096826    0.0900
     47 H47        -8.3925   -1.7523   60.8206 H       1  ZINC000642096826    0.1300
     48 H48        -7.7211   -1.0511   63.0805 H       1  ZINC000642096826    0.1400
     49 H49        -6.8980    0.7029   64.2818 H       1  ZINC000642096826    0.4000
     50 H50        -7.8149    0.9932   67.0952 H       1  ZINC000642096826    0.1400
     51 H51        -5.3335    1.2315   67.5664 H       1  ZINC000642096826    0.1000
     52 H52        -4.9935    1.2733   65.7542 H       1  ZINC000642096826    0.1000
     53 H53        -6.4461    3.3405   65.5293 H       1  ZINC000642096826    0.1000
     54 H54        -6.7862    3.2988   67.3416 H       1  ZINC000642096826    0.1100
     55 H55       -10.9286    1.7956   63.1289 H       1  ZINC000642096826    0.1200
     56 H56       -11.5799    1.0834   60.8666 H       1  ZINC000642096826    0.1300
@<TRIPOS>BOND
     1     1     2    1
     2     1    26    1
     3     1    27    1
     4     1    28    1
     5     2     3    1
     6     2    29    1
     7     2    30    1
     8     3     4    1
     9     3    31    1
    10     3    32    1
    11     4     5    1
    12     4     8   am
    13     5     6    1
    14     5    33    1
    15     5    34    1
    16     6     7    1
    17     6    35    1
    18     6    36    1
    19     7    37    1
    20     7    38    1
    21     7    39    1
    22     8     9    2
    23     8    10    1
    24    10    11    1
    25    10    40    1
    26    10    41    1
    27    11    12    1
    28    11    13    1
    29    12    42    1
    30    12    43    1
    31    12    44    1
    32    13    14    1
    33    13    45    1
    34    13    46    1
    35    14    25   ar
    36    14    15   ar
    37    15    16   ar
    38    15    47    1
    39    16    17   ar
    40    16    48    1
    41    17    18    1
    42    17    24   ar
    43    18    19    2
    44    18    20   am
    45    20    21    1
    46    20    49    1
    47    21    23    1
    48    21    22    1
    49    21    50    1
    50    22    23    1
    51    22    51    1
    52    22    52    1
    53    23    53    1
    54    23    54    1
    55    24    25   ar
    56    24    55    1
    57    25    56    1
@<TRIPOS>SUBSTRUCTURE
     1 ZINC000642096826        1 TEMP              0 ****  ****    0 ROOT


##########                                Name:    ZINC001041713551
##########                DOCK_Rotatable_Bonds:                  10
##########                         Heavy_Atoms:                  22
##########                    Molecular_Weight:             330.448
##########                DOCK_Rotatable_Bonds:                  10
##########                       Formal_Charge:          -0.0100006
##########                     HBond_Acceptors:                   7
##########                        HBond_Donors:                   2
##########                         Heavy_Atoms:                  22
##########                          Grid_Score:          -33.184502
##########                     Grid_vdw_energy:          -29.718580
##########                      Grid_es_energy:           -3.465922
##########           Internal_energy_repulsive:            6.368249

@<TRIPOS>MOLECULE
ZINC001041713551
 48 49 1 0 0
SMALL
USER_CHARGES


@<TRIPOS>ATOM
      1 C1         -1.6384    1.9793   62.1283 C.3     1  ZINC001041713551   -0.1500
      2 C2         -0.8296    2.5297   63.3048 C.3     1  ZINC001041713551   -0.1100
      3 C3         -1.2715    1.8375   64.5957 C.3     1  ZINC001041713551   -0.1000
      4 S4         -3.0401    2.1359   64.8669 S.3     1  ZINC001041713551   -0.1800
      5 C5         -3.3667    1.2658   66.4247 C.3     1  ZINC001041713551   -0.1300
      6 C6         -4.7589    1.5925   66.9003 C.2     1  ZINC001041713551    0.5300
      7 O7         -4.9275    2.4562   67.7348 O.2     1  ZINC001041713551   -0.5100
      8 N8         -5.8165    0.9247   66.3983 N.am    1  ZINC001041713551   -0.7300
      9 C9         -7.1700    1.2434   66.8595 C.3     1  ZINC001041713551    0.1000
     10 C10        -8.1917    0.5125   65.9860 C.3     1  ZINC001041713551    0.0900
     11 O11        -8.2946   -0.8790   66.2949 O.3     1  ZINC001041713551   -0.5200
     12 C12        -9.5500    1.2303   65.8885 C.3     1  ZINC001041713551    0.0900
     13 N13        -9.5157    0.8859   64.4539 N.am    1  ZINC001041713551   -0.6400
     14 C14       -10.4533    0.7149   63.5008 C.2     1  ZINC001041713551    0.5500
     15 O15       -11.6271    0.8521   63.7734 O.2     1  ZINC001041713551   -0.5100
     16 C16       -10.0431    0.3532   62.0965 C.3     1  ZINC001041713551    0.0800
     17 H17        -9.4699    1.1726   61.6629 H       1  ZINC001041713551    0.0800
     18 C18       -11.2926    0.0998   61.2490 C.3     1  ZINC001041713551   -0.1500
     19 C19       -10.8669   -0.3256   59.8404 C.3     1  ZINC001041713551   -0.1200
     20 C20        -9.9720   -1.5646   59.9417 C.3     1  ZINC001041713551   -0.1600
     21 C21        -8.7736   -1.2469   60.8397 C.3     1  ZINC001041713551    0.0600
     22 O22        -9.2398   -0.8283   62.1240 O.3     1  ZINC001041713551   -0.3600
     23 C23        -8.0424    0.8041   64.4818 C.3     1  ZINC001041713551    0.1200
     24 H24        -2.6988    2.1674   62.2968 H       1  ZINC001041713551    0.0600
     25 H25        -1.3236    2.4724   61.2087 H       1  ZINC001041713551    0.0600
     26 H26        -1.4691    0.9061   62.0415 H       1  ZINC001041713551    0.0600
     27 H27         0.2307    2.3415   63.1363 H       1  ZINC001041713551    0.0700
     28 H28        -0.9989    3.6029   63.3917 H       1  ZINC001041713551    0.0700
     29 H29        -1.0924    0.7655   64.5129 H       1  ZINC001041713551    0.0800
     30 H30        -0.7028    2.2371   65.4353 H       1  ZINC001041713551    0.0800
     31 H31        -3.2800    0.1909   66.2655 H       1  ZINC001041713551    0.1100
     32 H32        -2.6427    1.5814   67.1759 H       1  ZINC001041713551    0.1100
     33 H33        -5.6815    0.2330   65.7319 H       1  ZINC001041713551    0.4000
     34 H34        -7.2849    0.9260   67.8959 H       1  ZINC001041713551    0.0900
     35 H35        -7.3343    2.3185   66.7883 H       1  ZINC001041713551    0.0900
     36 H36        -9.0271   -1.3273   65.8503 H       1  ZINC001041713551    0.3800
     37 H37       -10.3492    0.7352   66.4402 H       1  ZINC001041713551    0.0900
     38 H38        -9.4961    2.3011   66.0846 H       1  ZINC001041713551    0.1000
     39 H39       -11.8873   -0.6921   61.7045 H       1  ZINC001041713551    0.0800
     40 H40       -11.8845    1.0132   61.1904 H       1  ZINC001041713551    0.0800
     41 H41       -11.7509   -0.5617   59.2480 H       1  ZINC001041713551    0.0700
     42 H42       -10.3144    0.4854   59.3659 H       1  ZINC001041713551    0.0700
     43 H43       -10.5399   -2.3901   60.3708 H       1  ZINC001041713551    0.0700
     44 H44        -9.6194   -1.8415   58.9481 H       1  ZINC001041713551    0.0800
     45 H45        -8.1556   -2.1380   60.9500 H       1  ZINC001041713551    0.1000
     46 H46        -8.1835   -0.4486   60.3895 H       1  ZINC001041713551    0.0500
     47 H47        -7.5457    1.7497   64.2648 H       1  ZINC001041713551    0.1100
     48 H48        -7.6379   -0.0314   63.9104 H       1  ZINC001041713551    0.1000
@<TRIPOS>BOND
     1     1     2    1
     2     1    24    1
     3     1    25    1
     4     1    26    1
     5     2     3    1
     6     2    27    1
     7     2    28    1
     8     3     4    1
     9     3    29    1
    10     3    30    1
    11     4     5    1
    12     5     6    1
    13     5    31    1
    14     5    32    1
    15     6     7    2
    16     6     8   am
    17     8     9    1
    18     8    33    1
    19     9    10    1
    20     9    34    1
    21     9    35    1
    22    10    23    1
    23    10    11    1
    24    10    12    1
    25    11    36    1
    26    12    13    1
    27    12    37    1
    28    12    38    1
    29    13    14   am
    30    13    23    1
    31    14    15    2
    32    14    16    1
    33    16    17    1
    34    16    22    1
    35    16    18    1
    36    18    19    1
    37    18    39    1
    38    18    40    1
    39    19    20    1
    40    19    41    1
    41    19    42    1
    42    20    21    1
    43    20    43    1
    44    20    44    1
    45    21    22    1
    46    21    45    1
    47    21    46    1
    48    23    47    1
    49    23    48    1
@<TRIPOS>SUBSTRUCTURE
     1 ZINC001041713551        1 TEMP              0 ****  ****    0 ROOT


##########                                Name:    ZINC000020646552
##########                DOCK_Rotatable_Bonds:                   5
##########                         Heavy_Atoms:                  29
##########                    Molecular_Weight:             412.556
##########                DOCK_Rotatable_Bonds:                   5
##########                       Formal_Charge:          -0.0200012
##########                     HBond_Acceptors:                   7
##########                        HBond_Donors:                   0
##########                         Heavy_Atoms:                  29
##########                          Grid_Score:          -33.100712
##########                     Grid_vdw_energy:          -31.997370
##########                      Grid_es_energy:           -1.103341
##########           Internal_energy_repulsive:           12.714660

@<TRIPOS>MOLECULE
ZINC000020646552
 57 60 1 0 0
SMALL
USER_CHARGES


@<TRIPOS>ATOM
      1 C1        -12.2403   -1.7923   59.5846 C.3     1  ZINC000020646552    0.0200
      2 N2        -11.2772   -0.6835   59.6184 N.3     1  ZINC000020646552   -0.5400
      3 C3        -11.6214    0.3432   58.6258 C.3     1  ZINC000020646552    0.0400
      4 C4        -10.7070    1.5583   58.8145 C.3     1  ZINC000020646552    0.1200
      5 N5         -9.3094    1.1014   58.7777 N.am    1  ZINC000020646552   -0.6100
      6 C6         -8.4090    1.6940   57.9686 C.2     1  ZINC000020646552    0.5300
      7 O7         -7.2610    1.3033   57.9499 O.2     1  ZINC000020646552   -0.5200
      8 C8         -8.8288    2.8419   57.0870 C.3     1  ZINC000020646552   -0.1500
      9 S9         -7.4416    3.3310   56.0321 S.3     1  ZINC000020646552    0.0500
     10 C10        -7.7982    2.3756   54.5953 C.ar    1  ZINC000020646552    0.1500
     11 N11        -8.8068    1.5106   54.5937 N.ar    1  ZINC000020646552   -0.5200
     12 C12        -9.0753    0.7914   53.5128 C.ar    1  ZINC000020646552    0.3800
     13 C13       -10.2101   -0.1633   53.5431 C.ar    1  ZINC000020646552   -0.0500
     14 C14       -11.2385    0.0018   54.4691 C.ar    1  ZINC000020646552   -0.0700
     15 C15       -12.2922   -0.8893   54.4923 C.ar    1  ZINC000020646552   -0.1300
     16 C16       -12.3286   -1.9447   53.5989 C.ar    1  ZINC000020646552   -0.1000
     17 C17       -11.3104   -2.1138   52.6780 C.ar    1  ZINC000020646552   -0.1300
     18 C18       -10.2547   -1.2255   52.6418 C.ar    1  ZINC000020646552   -0.0700
     19 N19        -8.3556    0.9044   52.4061 N.ar    1  ZINC000020646552   -0.5200
     20 C20        -7.3337    1.7485   52.3393 C.ar    1  ZINC000020646552    0.2100
     21 C21        -7.0268    2.5204   53.4363 C.ar    1  ZINC000020646552   -0.2100
     22 C22        -5.8895    3.5039   53.4200 C.3     1  ZINC000020646552    0.1100
     23 O23        -5.0217    3.2350   52.3181 O.3     1  ZINC000020646552   -0.3600
     24 C24        -5.7122    3.1325   51.0678 C.3     1  ZINC000020646552    0.1100
     25 C25        -6.6454    4.3328   50.8965 C.3     1  ZINC000020646552   -0.1800
     26 C26        -4.6985    3.1022   49.9222 C.3     1  ZINC000020646552   -0.1400
     27 C27        -6.5356    1.8445   51.0658 C.3     1  ZINC000020646552   -0.0900
     28 C28        -8.9204   -0.0190   59.6477 C.3     1  ZINC000020646552    0.1100
     29 C29        -9.9052   -1.1719   59.4262 C.3     1  ZINC000020646552    0.0400
     30 H30       -12.0069   -2.5007   60.3794 H       1  ZINC000020646552    0.0700
     31 H31       -13.2480   -1.4029   59.7294 H       1  ZINC000020646552    0.0700
     32 H32       -12.1806   -2.2961   58.6198 H       1  ZINC000020646552    0.0300
     33 H33       -11.4867   -0.0611   57.6226 H       1  ZINC000020646552    0.0400
     34 H34       -12.6601    0.6453   58.7601 H       1  ZINC000020646552    0.0900
     35 H35       -10.8793    2.2745   58.0112 H       1  ZINC000020646552    0.1000
     36 H36       -10.9139    2.0264   59.7768 H       1  ZINC000020646552    0.0800
     37 H37        -9.6681    2.5335   56.4639 H       1  ZINC000020646552    0.1300
     38 H38        -9.1283    3.6862   57.7080 H       1  ZINC000020646552    0.1200
     39 H39       -11.2109    0.8253   55.1672 H       1  ZINC000020646552    0.1400
     40 H40       -13.0895   -0.7626   55.2097 H       1  ZINC000020646552    0.1300
     41 H41       -13.1551   -2.6396   53.6207 H       1  ZINC000020646552    0.1300
     42 H42       -11.3438   -2.9398   51.9831 H       1  ZINC000020646552    0.1300
     43 H43        -9.4602   -1.3584   51.9224 H       1  ZINC000020646552    0.1300
     44 H44        -6.2872    4.5146   53.3284 H       1  ZINC000020646552    0.0800
     45 H45        -5.3278    3.4221   54.3506 H       1  ZINC000020646552    0.1100
     46 H46        -6.0609    5.2526   50.9129 H       1  ZINC000020646552    0.0700
     47 H47        -7.1697    4.2524   49.9442 H       1  ZINC000020646552    0.0700
     48 H48        -7.3704    4.3484   51.7103 H       1  ZINC000020646552    0.0600
     49 H49        -4.0391    2.2428   50.0431 H       1  ZINC000020646552    0.0700
     50 H50        -5.2266    3.0242   48.9719 H       1  ZINC000020646552    0.0800
     51 H51        -4.1078    4.0182   49.9355 H       1  ZINC000020646552    0.0700
     52 H52        -5.8666    0.9865   50.9984 H       1  ZINC000020646552    0.1000
     53 H53        -7.2097    1.8462   50.2093 H       1  ZINC000020646552    0.1000
     54 H54        -7.9116   -0.3454   59.3950 H       1  ZINC000020646552    0.0900
     55 H55        -8.9556    0.2975   60.6901 H       1  ZINC000020646552    0.0800
     56 H56        -9.6992   -1.9686   60.1409 H       1  ZINC000020646552    0.0900
     57 H57        -9.7943   -1.5551   58.4118 H       1  ZINC000020646552    0.0400
@<TRIPOS>BOND
     1     1     2    1
     2     1    30    1
     3     1    31    1
     4     1    32    1
     5     2    29    1
     6     2     3    1
     7     3     4    1
     8     3    33    1
     9     3    34    1
    10     4     5    1
    11     4    35    1
    12     4    36    1
    13     5     6   am
    14     5    28    1
    15     6     7    2
    16     6     8    1
    17     8     9    1
    18     8    37    1
    19     8    38    1
    20     9    10    1
    21    10    21   ar
    22    10    11   ar
    23    11    12   ar
    24    12    13    1
    25    12    19   ar
    26    13    18   ar
    27    13    14   ar
    28    14    15   ar
    29    14    39    1
    30    15    16   ar
    31    15    40    1
    32    16    17   ar
    33    16    41    1
    34    17    18   ar
    35    17    42    1
    36    18    43    1
    37    19    20   ar
    38    20    27    1
    39    20    21   ar
    40    21    22    1
    41    22    23    1
    42    22    44    1
    43    22    45    1
    44    23    24    1
    45    24    25    1
    46    24    26    1
    47    24    27    1
    48    25    46    1
    49    25    47    1
    50    25    48    1
    51    26    49    1
    52    26    50    1
    53    26    51    1
    54    27    52    1
    55    27    53    1
    56    28    29    1
    57    28    54    1
    58    28    55    1
    59    29    56    1
    60    29    57    1
@<TRIPOS>SUBSTRUCTURE
     1 ZINC000020646552        1 TEMP              0 ****  ****    0 ROOT


##########                                Name:    ZINC000859608860
##########                DOCK_Rotatable_Bonds:                   8
##########                         Heavy_Atoms:                  24
##########                    Molecular_Weight:             394.268
##########                DOCK_Rotatable_Bonds:                   8
##########                       Formal_Charge:          -0.0200003
##########                     HBond_Acceptors:                   6
##########                        HBond_Donors:                   1
##########                         Heavy_Atoms:                  24
##########                          Grid_Score:          -33.088615
##########                     Grid_vdw_energy:          -31.501043
##########                      Grid_es_energy:           -1.587571
##########           Internal_energy_repulsive:            8.861305

@<TRIPOS>MOLECULE
ZINC000859608860
 44 45 1 0 0
SMALL
USER_CHARGES


@<TRIPOS>ATOM
      1 C1         -4.3355    4.5997   57.6741 C.3     1  ZINC000859608860   -0.1400
      2 C2         -3.5046    3.9127   56.5883 C.3     1  ZINC000859608860   -0.0800
      3 C3         -2.0926    4.5017   56.5775 C.3     1  ZINC000859608860   -0.1400
      4 C4         -3.4292    2.4121   56.8769 C.3     1  ZINC000859608860   -0.1400
      5 C5         -4.1614    4.1375   55.2249 C.3     1  ZINC000859608860    0.1300
      6 N6         -3.3971    3.4329   54.1926 N.am    1  ZINC000859608860   -0.7300
      7 C7         -2.6154    4.1266   53.3416 C.2     1  ZINC000859608860    0.5100
      8 O8         -2.5458    5.3342   53.4294 O.2     1  ZINC000859608860   -0.5100
      9 C9         -1.8277    3.4017   52.2809 C.3     1  ZINC000859608860    0.0500
     10 O10        -2.4169    3.6600   50.9792 O.3     1  ZINC000859608860   -0.3100
     11 C11        -3.1150    2.6554   50.4131 C.2     1  ZINC000859608860    0.5600
     12 O12        -2.5358    1.7935   49.7814 O.2     1  ZINC000859608860   -0.5100
     13 C13        -4.5782    2.6022   50.5598 C.2     1  ZINC000859608860   -0.0400
     14 C14        -5.2871    1.6488   51.2325 C.2     1  ZINC000859608860    0.0500
     15 N15        -6.6012    1.9826   51.1174 N.pl3   1  ZINC000859608860   -0.4100
     16 C16        -7.6857    1.2771   51.6584 C.ar    1  ZINC000859608860    0.1400
     17 C17        -7.7290   -0.1076   51.5680 C.ar    1  ZINC000859608860   -0.1200
     18 C18        -8.7980   -0.8002   52.1021 C.ar    1  ZINC000859608860   -0.0600
     19 C19        -9.8251   -0.1152   52.7267 C.ar    1  ZINC000859608860   -0.1000
     20 Br20      -11.2871   -1.0667   53.4566 Br      1  ZINC000859608860   -0.0300
     21 C21        -9.7841    1.2647   52.8184 C.ar    1  ZINC000859608860   -0.0600
     22 C22        -8.7150    1.9616   52.2902 C.ar    1  ZINC000859608860   -0.1200
     23 C23        -6.6722    3.1258   50.3818 C.2     1  ZINC000859608860    0.2000
     24 N24        -5.4678    3.4957   50.0557 N.2     1  ZINC000859608860   -0.4300
     25 H25        -4.3892    5.6688   57.4685 H       1  ZINC000859608860    0.0500
     26 H26        -5.3414    4.1801   57.6818 H       1  ZINC000859608860    0.0600
     27 H27        -3.8675    4.4395   58.6454 H       1  ZINC000859608860    0.0600
     28 H28        -1.6247    4.3415   57.5488 H       1  ZINC000859608860    0.0600
     29 H29        -1.5007    4.0122   55.8041 H       1  ZINC000859608860    0.0600
     30 H30        -2.1464    5.5708   56.3719 H       1  ZINC000859608860    0.0500
     31 H31        -4.4351    1.9925   56.8846 H       1  ZINC000859608860    0.0600
     32 H32        -2.8373    1.9227   56.1034 H       1  ZINC000859608860    0.0600
     33 H33        -2.9613    2.2520   57.8483 H       1  ZINC000859608860    0.0600
     34 H34        -5.1820    3.7552   55.2457 H       1  ZINC000859608860    0.0700
     35 H35        -4.1775    5.2040   55.0007 H       1  ZINC000859608860    0.0700
     36 H36        -3.4536    2.4672   54.1215 H       1  ZINC000859608860    0.4000
     37 H37        -0.7964    3.7545   52.2893 H       1  ZINC000859608860    0.1000
     38 H38        -1.8470    2.3306   52.4823 H       1  ZINC000859608860    0.1000
     39 H39        -4.8828    0.7943   51.7550 H       1  ZINC000859608860    0.2000
     40 H40        -6.9277   -0.6427   51.0802 H       1  ZINC000859608860    0.1400
     41 H41        -8.8322   -1.8773   52.0316 H       1  ZINC000859608860    0.1500
     42 H42       -10.5871    1.7971   53.3065 H       1  ZINC000859608860    0.1500
     43 H43        -8.6835    3.0388   52.3621 H       1  ZINC000859608860    0.1500
     44 H44        -7.5812    3.6445   50.1153 H       1  ZINC000859608860    0.2200
@<TRIPOS>BOND
     1     1     2    1
     2     1    25    1
     3     1    26    1
     4     1    27    1
     5     2     3    1
     6     2     4    1
     7     2     5    1
     8     3    28    1
     9     3    29    1
    10     3    30    1
    11     4    31    1
    12     4    32    1
    13     4    33    1
    14     5     6    1
    15     5    34    1
    16     5    35    1
    17     6     7   am
    18     6    36    1
    19     7     8    2
    20     7     9    1
    21     9    10    1
    22     9    37    1
    23     9    38    1
    24    10    11    1
    25    11    12    2
    26    11    13    1
    27    13    24    1
    28    13    14    2
    29    14    15    1
    30    14    39    1
    31    15    16    1
    32    15    23    1
    33    16    22   ar
    34    16    17   ar
    35    17    18   ar
    36    17    40    1
    37    18    19   ar
    38    18    41    1
    39    19    20    1
    40    19    21   ar
    41    21    22   ar
    42    21    42    1
    43    22    43    1
    44    23    24    2
    45    23    44    1
@<TRIPOS>SUBSTRUCTURE
     1 ZINC000859608860        1 TEMP              0 ****  ****    0 ROOT


##########                                Name:    ZINC000546115054
##########                DOCK_Rotatable_Bonds:                  10
##########                         Heavy_Atoms:                  26
##########                    Molecular_Weight:             363.457
##########                DOCK_Rotatable_Bonds:                  10
##########                       Formal_Charge:        -4.39584e-07
##########                     HBond_Acceptors:                   7
##########                        HBond_Donors:                   2
##########                         Heavy_Atoms:                  26
##########                          Grid_Score:          -33.044079
##########                     Grid_vdw_energy:          -28.419098
##########                      Grid_es_energy:           -4.624982
##########           Internal_energy_repulsive:           44.709167

@<TRIPOS>MOLECULE
ZINC000546115054
 55 56 1 0 0
SMALL
USER_CHARGES


@<TRIPOS>ATOM
      1 C1        -12.2308    2.6899   63.0804 C.3     1  ZINC000546115054   -0.1500
      2 C2        -12.6604    1.2623   62.7359 C.3     1  ZINC000546115054    0.0600
      3 O3        -11.5276    0.3940   62.8060 O.3     1  ZINC000546115054   -0.3700
      4 C4        -10.8363    0.2391   61.5650 C.3     1  ZINC000546115054    0.0500
      5 H5        -10.8003    1.1970   61.0461 H       1  ZINC000546115054    0.0700
      6 C6        -11.5690   -0.7863   60.6958 C.3     1  ZINC000546115054    0.0400
      7 O7        -10.8444   -0.9823   59.4798 O.3     1  ZINC000546115054   -0.3700
      8 C8         -9.5207   -1.4881   59.6643 C.3     1  ZINC000546115054    0.0600
      9 C9         -8.7058   -0.4910   60.4921 C.3     1  ZINC000546115054   -0.1600
     10 C10        -9.4104   -0.2529   61.8313 C.3     1  ZINC000546115054    0.1700
     11 H11        -9.4471   -1.1852   62.3949 H       1  ZINC000546115054    0.1000
     12 N12        -8.6756    0.7554   62.5992 N.am    1  ZINC000546115054   -0.7300
     13 C13        -8.2928    0.4920   63.8644 C.2     1  ZINC000546115054    0.7200
     14 O14        -8.5586   -0.5819   64.3689 O.2     1  ZINC000546115054   -0.5900
     15 N15        -7.6154    1.4190   64.5703 N.am    1  ZINC000546115054   -0.7200
     16 C16        -7.2009    1.1333   65.9462 C.3     1  ZINC000546115054    0.1600
     17 H17        -6.6586    0.1881   65.9734 H       1  ZINC000546115054    0.1200
     18 C18        -6.2924    2.2571   66.4488 C.3     1  ZINC000546115054   -0.1000
     19 C19        -4.9859    2.2204   65.6988 C.ar    1  ZINC000546115054   -0.0800
     20 C20        -3.9507    1.4243   66.1523 C.ar    1  ZINC000546115054   -0.1100
     21 C21        -2.7523    1.3906   65.4642 C.ar    1  ZINC000546115054   -0.1200
     22 C22        -2.5890    2.1527   64.3226 C.ar    1  ZINC000546115054   -0.1200
     23 C23        -3.6245    2.9481   63.8686 C.ar    1  ZINC000546115054   -0.1200
     24 C24        -4.8244    2.9785   64.5541 C.ar    1  ZINC000546115054   -0.1100
     25 C25        -8.4189    1.0393   66.8286 C.2     1  ZINC000546115054    0.5000
     26 O26        -8.4904    0.1717   67.6730 O.2     1  ZINC000546115054   -0.5200
     27 N27        -9.4287    1.9193   66.6793 N.am    1  ZINC000546115054   -0.6200
     28 C28        -9.3431    2.9662   65.6581 C.3     1  ZINC000546115054    0.0800
     29 C29       -10.6119    1.8290   67.5384 C.3     1  ZINC000546115054    0.0700
     30 H30       -13.0948    3.3522   63.0268 H       1  ZINC000546115054    0.0700
     31 H31       -11.8182    2.7116   64.0890 H       1  ZINC000546115054    0.0600
     32 H32       -11.4734    3.0226   62.3707 H       1  ZINC000546115054    0.0600
     33 H33       -13.4179    0.9296   63.4456 H       1  ZINC000546115054    0.0500
     34 H34       -13.0730    1.2406   61.7272 H       1  ZINC000546115054    0.0500
     35 H35       -11.6413   -1.7323   61.2324 H       1  ZINC000546115054    0.0600
     36 H36       -12.5700   -0.4202   60.4675 H       1  ZINC000546115054    0.1000
     37 H37        -9.5662   -2.4433   60.1875 H       1  ZINC000546115054    0.0600
     38 H38        -9.0462   -1.6277   58.6931 H       1  ZINC000546115054    0.1000
     39 H39        -7.7095   -0.8949   60.6715 H       1  ZINC000546115054    0.0900
     40 H40        -8.6257    0.4519   59.9511 H       1  ZINC000546115054    0.0800
     41 H41        -8.4646    1.6125   62.1973 H       1  ZINC000546115054    0.3900
     42 H42        -7.4023    2.2752   64.1675 H       1  ZINC000546115054    0.4000
     43 H43        -6.7789    3.2185   66.2843 H       1  ZINC000546115054    0.0900
     44 H44        -6.1039    2.1229   67.5139 H       1  ZINC000546115054    0.1100
     45 H45        -4.0783    0.8289   67.0442 H       1  ZINC000546115054    0.1200
     46 H46        -1.9433    0.7692   65.8189 H       1  ZINC000546115054    0.1200
     47 H47        -1.6524    2.1269   63.7855 H       1  ZINC000546115054    0.1200
     48 H48        -3.4968    3.5437   62.9767 H       1  ZINC000546115054    0.1200
     49 H49        -5.6335    3.6000   64.1995 H       1  ZINC000546115054    0.1200
     50 H50        -9.7681    2.5983   64.7242 H       1  ZINC000546115054    0.0600
     51 H51        -9.8987    3.8434   65.9896 H       1  ZINC000546115054    0.0700
     52 H52        -8.2987    3.2357   65.5008 H       1  ZINC000546115054    0.0800
     53 H53       -10.4592    2.4340   68.4321 H       1  ZINC000546115054    0.0600
     54 H54       -11.4835    2.1956   66.9960 H       1  ZINC000546115054    0.0800
     55 H55       -10.7737    0.7903   67.8262 H       1  ZINC000546115054    0.0700
@<TRIPOS>BOND
     1     1     2    1
     2     1    30    1
     3     1    31    1
     4     1    32    1
     5     2     3    1
     6     2    33    1
     7     2    34    1
     8     3     4    1
     9     4     5    1
    10     4    10    1
    11     4     6    1
    12     6     7    1
    13     6    35    1
    14     6    36    1
    15     7     8    1
    16     8     9    1
    17     8    37    1
    18     8    38    1
    19     9    10    1
    20     9    39    1
    21     9    40    1
    22    10    11    1
    23    10    12    1
    24    12    13   am
    25    12    41    1
    26    13    14    2
    27    13    15   am
    28    15    16    1
    29    15    42    1
    30    16    17    1
    31    16    18    1
    32    16    25    1
    33    18    19    1
    34    18    43    1
    35    18    44    1
    36    19    24   ar
    37    19    20   ar
    38    20    21   ar
    39    20    45    1
    40    21    22   ar
    41    21    46    1
    42    22    23   ar
    43    22    47    1
    44    23    24   ar
    45    23    48    1
    46    24    49    1
    47    25    26    2
    48    25    27   am
    49    27    28    1
    50    27    29    1
    51    28    50    1
    52    28    51    1
    53    28    52    1
    54    29    53    1
    55    29    54    1
    56    29    55    1
@<TRIPOS>SUBSTRUCTURE
     1 ZINC000546115054        1 TEMP              0 ****  ****    0 ROOT


##########                                Name:    ZINC001289410668
##########                DOCK_Rotatable_Bonds:                  11
##########                         Heavy_Atoms:                  26
##########                    Molecular_Weight:             362.515
##########                DOCK_Rotatable_Bonds:                  11
##########                       Formal_Charge:          -0.0400008
##########                     HBond_Acceptors:                   6
##########                        HBond_Donors:                   1
##########                         Heavy_Atoms:                  26
##########                          Grid_Score:          -33.016720
##########                     Grid_vdw_energy:          -31.210510
##########                      Grid_es_energy:           -1.806209
##########           Internal_energy_repulsive:           16.366905

@<TRIPOS>MOLECULE
ZINC001289410668
 60 61 1 0 0
SMALL
USER_CHARGES


@<TRIPOS>ATOM
      1 C1         -1.3906    1.6351   65.3701 C.3     1  ZINC001289410668   -0.1500
      2 C2         -2.6547    2.4322   65.0417 C.3     1  ZINC001289410668   -0.1300
      3 C3         -3.3059    2.9132   66.3400 C.3     1  ZINC001289410668   -0.1200
      4 C4         -4.0482    1.7492   66.9999 C.3     1  ZINC001289410668   -0.1200
      5 C5         -5.3410    1.4678   66.2317 C.3     1  ZINC001289410668   -0.1100
      6 C6         -6.2007    0.4810   67.0242 C.3     1  ZINC001289410668   -0.1400
      7 C7         -7.4830    0.2192   66.2771 C.2     1  ZINC001289410668    0.5100
      8 O8         -8.2320   -0.6598   66.6475 O.2     1  ZINC001289410668   -0.5300
      9 N9         -7.7974    0.9619   65.1973 N.am    1  ZINC001289410668   -0.7200
     10 C10        -9.0432    0.7063   64.4699 C.3     1  ZINC001289410668    0.1400
     11 H11        -9.7363    0.1254   65.0785 H       1  ZINC001289410668    0.1100
     12 C12        -8.7630   -0.0001   63.1201 C.3     1  ZINC001289410668    0.0800
     13 N13        -9.9139    0.3467   62.2666 N.am    1  ZINC001289410668   -0.6200
     14 C14       -10.3512   -0.3662   61.2097 C.2     1  ZINC001289410668    0.5100
     15 O15        -9.7821   -1.3885   60.8905 O.2     1  ZINC001289410668   -0.5100
     16 C16       -11.5473    0.1071   60.4245 C.3     1  ZINC001289410668    0.0900
     17 N17       -12.5660   -0.9455   60.4047 N.pl3   1  ZINC001289410668   -0.4500
     18 C18       -13.4553   -1.2341   61.4045 C.2     1  ZINC001289410668   -0.0500
     19 C19       -14.2052   -2.2661   60.9729 C.2     1  ZINC001289410668   -0.0200
     20 N20       -13.7854   -2.5984   59.7432 N.2     1  ZINC001289410668   -0.4800
     21 C21       -12.8072   -1.8084   59.3942 C.2     1  ZINC001289410668    0.2300
     22 C22       -12.0634   -1.8570   58.0844 C.3     1  ZINC001289410668   -0.0100
     23 C23       -11.9601   -3.3080   57.6101 C.3     1  ZINC001289410668   -0.1400
     24 C24       -12.8164   -1.0312   57.0395 C.3     1  ZINC001289410668   -0.1400
     25 C25       -10.5062    1.5988   62.7598 C.3     1  ZINC001289410668    0.1100
     26 C26        -9.6944    2.0334   63.9988 C.3     1  ZINC001289410668   -0.1100
     27 H27        -8.9306    2.7607   63.7236 H       1  ZINC001289410668    0.0900
     28 C28       -10.6173    2.6028   65.0782 C.3     1  ZINC001289410668   -0.1400
     29 H29        -0.9267    1.2924   64.4452 H       1  ZINC001289410668    0.0500
     30 H30        -0.6915    2.2704   65.9137 H       1  ZINC001289410668    0.0500
     31 H31        -1.6534    0.7745   65.9854 H       1  ZINC001289410668    0.0500
     32 H32        -2.3920    3.2927   64.4265 H       1  ZINC001289410668    0.0600
     33 H33        -3.3539    1.7968   64.4982 H       1  ZINC001289410668    0.0600
     34 H34        -2.5362    3.2836   67.0171 H       1  ZINC001289410668    0.0600
     35 H35        -4.0108    3.7143   66.1179 H       1  ZINC001289410668    0.0600
     36 H36        -3.4166    0.8610   66.9859 H       1  ZINC001289410668    0.0600
     37 H37        -4.2874    2.0088   68.0311 H       1  ZINC001289410668    0.0600
     38 H38        -5.8909    2.3986   66.0927 H       1  ZINC001289410668    0.0700
     39 H39        -5.0998    1.0396   65.2588 H       1  ZINC001289410668    0.0700
     40 H40        -5.6563   -0.4548   67.1507 H       1  ZINC001289410668    0.1000
     41 H41        -6.4299    0.9032   68.0027 H       1  ZINC001289410668    0.1000
     42 H42        -7.1990    1.6657   64.9018 H       1  ZINC001289410668    0.4000
     43 H43        -7.8384    0.3743   62.6807 H       1  ZINC001289410668    0.0800
     44 H44        -8.7071   -1.0795   63.2612 H       1  ZINC001289410668    0.0800
     45 H45       -11.9583    1.0017   60.8925 H       1  ZINC001289410668    0.1200
     46 H46       -11.2434    0.3380   59.4036 H       1  ZINC001289410668    0.1200
     47 H47       -13.5390   -0.7312   62.3566 H       1  ZINC001289410668    0.1700
     48 H48       -15.0046   -2.7426   61.5211 H       1  ZINC001289410668    0.1700
     49 H49       -11.0626   -1.4468   58.2194 H       1  ZINC001289410668    0.0700
     50 H50       -12.9610   -3.7181   57.4751 H       1  ZINC001289410668    0.0700
     51 H51       -11.4222   -3.3431   56.6628 H       1  ZINC001289410668    0.0600
     52 H52       -11.4237   -3.8963   58.3546 H       1  ZINC001289410668    0.0500
     53 H53       -13.8172   -1.4415   56.9044 H       1  ZINC001289410668    0.0700
     54 H54       -12.8900    0.0025   57.3773 H       1  ZINC001289410668    0.0600
     55 H55       -12.2785   -1.0663   56.0921 H       1  ZINC001289410668    0.0600
     56 H56       -10.4459    2.3665   61.9886 H       1  ZINC001289410668    0.0800
     57 H57       -11.5466    1.4319   63.0390 H       1  ZINC001289410668    0.0800
     58 H58       -11.3540    1.8505   65.3602 H       1  ZINC001289410668    0.0600
     59 H59       -10.0271    2.8788   65.9521 H       1  ZINC001289410668    0.0600
     60 H60       -11.1281    3.4846   64.6914 H       1  ZINC001289410668    0.0700
@<TRIPOS>BOND
     1     1     2    1
     2     1    29    1
     3     1    30    1
     4     1    31    1
     5     2     3    1
     6     2    32    1
     7     2    33    1
     8     3     4    1
     9     3    34    1
    10     3    35    1
    11     4     5    1
    12     4    36    1
    13     4    37    1
    14     5     6    1
    15     5    38    1
    16     5    39    1
    17     6     7    1
    18     6    40    1
    19     6    41    1
    20     7     8    2
    21     7     9   am
    22     9    10    1
    23     9    42    1
    24    10    11    1
    25    10    26    1
    26    10    12    1
    27    12    13    1
    28    12    43    1
    29    12    44    1
    30    13    14   am
    31    13    25    1
    32    14    15    2
    33    14    16    1
    34    16    17    1
    35    16    45    1
    36    16    46    1
    37    17    21    1
    38    17    18    1
    39    18    19    2
    40    18    47    1
    41    19    20    1
    42    19    48    1
    43    20    21    2
    44    21    22    1
    45    22    23    1
    46    22    24    1
    47    22    49    1
    48    23    50    1
    49    23    51    1
    50    23    52    1
    51    24    53    1
    52    24    54    1
    53    24    55    1
    54    25    26    1
    55    25    56    1
    56    25    57    1
    57    26    27    1
    58    26    28    1
    59    28    58    1
    60    28    59    1
    61    28    60    1
@<TRIPOS>SUBSTRUCTURE
     1 ZINC001289410668        1 TEMP              0 ****  ****    0 ROOT


##########                                Name:    ZINC000745364361
##########                DOCK_Rotatable_Bonds:                   8
##########                         Heavy_Atoms:                  29
##########                    Molecular_Weight:             398.434
##########                DOCK_Rotatable_Bonds:                   8
##########                       Formal_Charge:          0.00999923
##########                     HBond_Acceptors:                   7
##########                        HBond_Donors:                   1
##########                         Heavy_Atoms:                  29
##########                          Grid_Score:          -33.000698
##########                     Grid_vdw_energy:          -33.570580
##########                      Grid_es_energy:            0.569881
##########           Internal_energy_repulsive:            8.227599

@<TRIPOS>MOLECULE
ZINC000745364361
 52 54 1 0 0
SMALL
USER_CHARGES


@<TRIPOS>ATOM
      1 C1        -14.2330   -0.6056   53.4449 C.3     1  ZINC000745364361   -0.1700
      2 C2        -12.9494   -1.4063   53.6739 C.3     1  ZINC000745364361    0.0700
      3 H3        -13.0455   -2.3874   53.2090 H       1  ZINC000745364361    0.1100
      4 O4        -12.7264   -1.5660   55.0998 O.3     1  ZINC000745364361   -0.3200
      5 C5        -13.2740   -2.6425   55.6853 C.2     1  ZINC000745364361    0.4700
      6 O6        -13.2947   -3.7015   55.1039 O.2     1  ZINC000745364361   -0.4900
      7 C7        -13.8628   -2.5303   57.0680 C.3     1  ZINC000745364361   -0.0400
      8 H8        -14.7303   -1.8710   57.0412 H       1  ZINC000745364361    0.1200
      9 C9        -14.2907   -3.9166   57.5541 C.3     1  ZINC000745364361   -0.1400
     10 C10       -12.8307   -1.9645   58.0091 C.ar    1  ZINC000745364361   -0.0500
     11 C11       -13.1188   -0.8356   58.7528 C.ar    1  ZINC000745364361   -0.1000
     12 C12       -12.1728   -0.3155   59.6166 C.ar    1  ZINC000745364361   -0.0900
     13 C13       -10.9380   -0.9238   59.7375 C.ar    1  ZINC000745364361   -0.1500
     14 C14       -10.6484   -2.0552   58.9932 C.ar    1  ZINC000745364361    0.1000
     15 F15        -9.4415   -2.6508   59.1105 F       1  ZINC000745364361   -0.1400
     16 C16       -11.5983   -2.5781   58.1325 C.ar    1  ZINC000745364361   -0.1400
     17 C17       -11.7838   -0.6725   53.0622 C.2     1  ZINC000745364361    0.5200
     18 O18       -11.9607    0.0650   52.1156 O.2     1  ZINC000745364361   -0.5000
     19 N19       -10.5449   -0.8357   53.5671 N.am    1  ZINC000745364361   -0.6700
     20 C20        -9.4616   -0.1536   52.9986 C.ar    1  ZINC000745364361    0.1200
     21 C21        -9.2305    1.1765   53.3239 C.ar    1  ZINC000745364361   -0.1100
     22 C22        -8.1628    1.8487   52.7637 C.ar    1  ZINC000745364361   -0.1400
     23 C23        -7.3197    1.1947   51.8749 C.ar    1  ZINC000745364361    0.1500
     24 N24        -6.2366    1.8769   51.3061 N.am    1  ZINC000745364361   -0.5600
     25 C25        -4.8616    1.8197   51.8163 C.3     1  ZINC000745364361    0.0900
     26 C26        -3.9727    2.3387   50.6645 C.3     1  ZINC000745364361   -0.1300
     27 C27        -4.9617    3.2328   49.8812 C.3     1  ZINC000745364361   -0.1500
     28 C28        -6.3218    2.6634   50.2194 C.2     1  ZINC000745364361    0.5200
     29 O29        -7.3422    2.8896   49.6038 O.2     1  ZINC000745364361   -0.5100
     30 C30        -7.5499   -0.1358   51.5507 C.ar    1  ZINC000745364361   -0.1400
     31 C31        -8.6153   -0.8091   52.1139 C.ar    1  ZINC000745364361   -0.0900
     32 H32       -15.0760   -1.1363   53.8873 H       1  ZINC000745364361    0.0800
     33 H33       -14.1369    0.3756   53.9098 H       1  ZINC000745364361    0.0800
     34 H34       -14.4003   -0.4858   52.3746 H       1  ZINC000745364361    0.0800
     35 H35       -13.4232   -4.5759   57.5810 H       1  ZINC000745364361    0.0700
     36 H36       -14.7165   -3.8355   58.5541 H       1  ZINC000745364361    0.0800
     37 H37       -15.0372   -4.3258   56.8734 H       1  ZINC000745364361    0.0800
     38 H38       -14.0834   -0.3593   58.6587 H       1  ZINC000745364361    0.1300
     39 H39       -12.3989    0.5669   60.1970 H       1  ZINC000745364361    0.1400
     40 H40       -10.1990   -0.5170   60.4117 H       1  ZINC000745364361    0.1400
     41 H41       -11.3737   -3.4606   57.5519 H       1  ZINC000745364361    0.1400
     42 H42       -10.4034   -1.4254   54.3240 H       1  ZINC000745364361    0.4100
     43 H43        -9.8862    1.6852   54.0151 H       1  ZINC000745364361    0.1300
     44 H44        -7.9835    2.8834   53.0162 H       1  ZINC000745364361    0.1600
     45 H45        -4.7571    2.4608   52.6916 H       1  ZINC000745364361    0.0800
     46 H46        -4.5943    0.7929   52.0659 H       1  ZINC000745364361    0.0900
     47 H47        -3.1381    2.9245   51.0495 H       1  ZINC000745364361    0.1000
     48 H48        -3.6167    1.5154   50.0452 H       1  ZINC000745364361    0.0900
     49 H49        -4.8842    4.2684   50.2125 H       1  ZINC000745364361    0.1100
     50 H50        -4.7760    3.1592   48.8097 H       1  ZINC000745364361    0.1100
     51 H51        -6.8941   -0.6446   50.8598 H       1  ZINC000745364361    0.1300
     52 H52        -8.7944   -1.8438   51.8616 H       1  ZINC000745364361    0.1400
@<TRIPOS>BOND
     1     1     2    1
     2     1    32    1
     3     1    33    1
     4     1    34    1
     5     2     3    1
     6     2     4    1
     7     2    17    1
     8     4     5    1
     9     5     6    2
    10     5     7    1
    11     7     8    1
    12     7     9    1
    13     7    10    1
    14     9    35    1
    15     9    36    1
    16     9    37    1
    17    10    16   ar
    18    10    11   ar
    19    11    12   ar
    20    11    38    1
    21    12    13   ar
    22    12    39    1
    23    13    14   ar
    24    13    40    1
    25    14    15    1
    26    14    16   ar
    27    16    41    1
    28    17    18    2
    29    17    19   am
    30    19    20    1
    31    19    42    1
    32    20    31   ar
    33    20    21   ar
    34    21    22   ar
    35    21    43    1
    36    22    23   ar
    37    22    44    1
    38    23    24    1
    39    23    30   ar
    40    24    28   am
    41    24    25    1
    42    25    26    1
    43    25    45    1
    44    25    46    1
    45    26    27    1
    46    26    47    1
    47    26    48    1
    48    27    28    1
    49    27    49    1
    50    27    50    1
    51    28    29    2
    52    30    31   ar
    53    30    51    1
    54    31    52    1
@<TRIPOS>SUBSTRUCTURE
     1 ZINC000745364361        1 TEMP              0 ****  ****    0 ROOT


##########                                Name:    ZINC001411334959
##########                DOCK_Rotatable_Bonds:                   9
##########                         Heavy_Atoms:                  24
##########                    Molecular_Weight:              339.37
##########                DOCK_Rotatable_Bonds:                   9
##########                       Formal_Charge:           0.0199995
##########                     HBond_Acceptors:                   9
##########                        HBond_Donors:                   3
##########                         Heavy_Atoms:                  24
##########                          Grid_Score:          -32.995525
##########                     Grid_vdw_energy:          -32.596157
##########                      Grid_es_energy:           -0.399370
##########           Internal_energy_repulsive:            7.076579

@<TRIPOS>MOLECULE
ZINC001411334959
 46 48 1 0 0
SMALL
USER_CHARGES


@<TRIPOS>ATOM
      1 O1         -6.1215    1.4830   50.0753 O.2     1  ZINC001411334959   -0.5400
      2 C2         -6.3628    2.0448   51.1227 C.2     1  ZINC001411334959    0.5200
      3 C3         -7.5592    1.6322   51.9408 C.3     1  ZINC001411334959   -0.1400
      4 C4         -7.7880    0.1272   51.7867 C.3     1  ZINC001411334959   -0.0100
      5 C5         -9.0602   -0.2626   52.4943 C.2     1  ZINC001411334959    0.0100
      6 N6         -9.8540   -1.2671   52.1997 N.2     1  ZINC001411334959   -0.2800
      7 N7        -10.8358   -1.2746   53.0303 N.pl3   1  ZINC001411334959   -0.2500
      8 N8        -10.7278   -0.3088   53.8725 N.2     1  ZINC001411334959   -0.2800
      9 C9         -9.6339    0.3665   53.6016 C.2     1  ZINC001411334959   -0.0200
     10 N10        -5.5578    3.0343   51.5578 N.am    1  ZINC001411334959   -0.7200
     11 C11        -4.3947    3.4354   50.7625 C.3     1  ZINC001411334959    0.1200
     12 C12        -3.4501    4.4018   51.4965 C.3     1  ZINC001411334959   -0.1400
     13 C13        -2.2863    3.6130   50.8734 C.3     1  ZINC001411334959   -0.1200
     14 C14        -1.1120    3.3954   51.8297 C.3     1  ZINC001411334959    0.1300
     15 N15        -0.1171    2.5295   51.1921 N.am    1  ZINC001411334959   -0.7200
     16 C16         1.1848    2.6419   51.5224 C.2     1  ZINC001411334959    0.5100
     17 O17         1.5324    3.4590   52.3485 O.2     1  ZINC001411334959   -0.5100
     18 C18         2.2085    1.7524   50.8653 C.3     1  ZINC001411334959    0.0700
     19 F19         2.6215    2.2915   49.6422 F       1  ZINC001411334959   -0.1800
     20 C20         3.4203    1.5149   51.8071 C.3     1  ZINC001411334959   -0.1600
     21 C21         3.9077    0.1286   51.3153 C.3     1  ZINC001411334959    0.0500
     22 O22         2.7111   -0.5938   50.9842 O.3     1  ZINC001411334959   -0.3700
     23 C23         1.6549    0.3236   50.6770 C.3     1  ZINC001411334959    0.0400
     24 C24        -3.2456    2.4138   50.7930 C.3     1  ZINC001411334959   -0.1400
     25 H25        -7.3803    1.8669   52.9902 H       1  ZINC001411334959    0.1000
     26 H26        -8.4406    2.1711   51.5931 H       1  ZINC001411334959    0.1000
     27 H27        -7.8700   -0.1213   50.7286 H       1  ZINC001411334959    0.1000
     28 H28        -6.9488   -0.4144   52.2231 H       1  ZINC001411334959    0.0900
     29 H29       -11.5593   -1.9206   53.0224 H       1  ZINC001411334959    0.4700
     30 H30        -9.2588    1.2342   54.1238 H       1  ZINC001411334959    0.2000
     31 H31        -5.7486    3.4809   52.3974 H       1  ZINC001411334959    0.4000
     32 H32        -4.6614    3.7626   49.7575 H       1  ZINC001411334959    0.1200
     33 H33        -3.5182    5.4309   51.1440 H       1  ZINC001411334959    0.0800
     34 H34        -3.5004    4.3211   52.5823 H       1  ZINC001411334959    0.0900
     35 H35        -1.9748    3.9906   49.8995 H       1  ZINC001411334959    0.1000
     36 H36        -0.6565    4.3560   52.0704 H       1  ZINC001411334959    0.0800
     37 H37        -1.4709    2.9241   52.7446 H       1  ZINC001411334959    0.0800
     38 H38        -0.3952    1.8751   50.5322 H       1  ZINC001411334959    0.4100
     39 H39         4.1870    2.2756   51.6602 H       1  ZINC001411334959    0.1000
     40 H40         3.1053    1.4733   52.8497 H       1  ZINC001411334959    0.1100
     41 H41         4.5385    0.2403   50.4334 H       1  ZINC001411334959    0.0700
     42 H42         4.4521   -0.3841   52.1083 H       1  ZINC001411334959    0.1000
     43 H43         0.8151    0.1604   51.3525 H       1  ZINC001411334959    0.0900
     44 H44         1.3331    0.1848   49.6448 H       1  ZINC001411334959    0.0900
     45 H45        -3.2401    1.7896   51.6866 H       1  ZINC001411334959    0.0900
     46 H46        -3.1487    1.8380   49.8727 H       1  ZINC001411334959    0.0800
@<TRIPOS>BOND
     1     1     2    2
     2     2     3    1
     3     2    10   am
     4     3     4    1
     5     3    25    1
     6     3    26    1
     7     4     5    1
     8     4    27    1
     9     4    28    1
    10     5     9    1
    11     5     6    2
    12     6     7    1
    13     7     8    1
    14     7    29    1
    15     8     9    2
    16     9    30    1
    17    10    11    1
    18    10    31    1
    19    11    24    1
    20    11    12    1
    21    11    32    1
    22    12    13    1
    23    12    33    1
    24    12    34    1
    25    13    14    1
    26    13    24    1
    27    13    35    1
    28    14    15    1
    29    14    36    1
    30    14    37    1
    31    15    16   am
    32    15    38    1
    33    16    17    2
    34    16    18    1
    35    18    23    1
    36    18    19    1
    37    18    20    1
    38    20    21    1
    39    20    39    1
    40    20    40    1
    41    21    22    1
    42    21    41    1
    43    21    42    1
    44    22    23    1
    45    23    43    1
    46    23    44    1
    47    24    45    1
    48    24    46    1
@<TRIPOS>SUBSTRUCTURE
     1 ZINC001411334959        1 TEMP              0 ****  ****    0 ROOT


##########                                Name:    ZINC000032503012
##########                DOCK_Rotatable_Bonds:                   8
##########                         Heavy_Atoms:                  27
##########                    Molecular_Weight:             390.503
##########                DOCK_Rotatable_Bonds:                   8
##########                       Formal_Charge:           0.0099995
##########                     HBond_Acceptors:                   7
##########                        HBond_Donors:                   2
##########                         Heavy_Atoms:                  27
##########                          Grid_Score:          -32.988720
##########                     Grid_vdw_energy:          -30.428205
##########                      Grid_es_energy:           -2.560514
##########           Internal_energy_repulsive:           78.486923

@<TRIPOS>MOLECULE
ZINC000032503012
 53 54 1 0 0
SMALL
USER_CHARGES


@<TRIPOS>ATOM
      1 C1         -6.7681    4.5128   56.7526 C.3     1  ZINC000032503012   -0.1200
      2 C2         -7.7516    3.7854   57.6328 C.ar    1  ZINC000032503012   -0.0500
      3 C3         -8.8486    4.4547   58.1425 C.ar    1  ZINC000032503012   -0.1600
      4 C4         -9.7529    3.7901   58.9505 C.ar    1  ZINC000032503012   -0.0700
      5 C5         -9.5619    2.4553   59.2503 C.ar    1  ZINC000032503012   -0.1500
      6 C6         -8.4616    1.7815   58.7400 C.ar    1  ZINC000032503012    0.1300
      7 O7         -8.2717    0.4680   59.0332 O.3     1  ZINC000032503012   -0.2800
      8 C8         -9.2452   -0.1567   59.8721 C.3     1  ZINC000032503012    0.0700
      9 H9        -10.2309   -0.0648   59.4158 H       1  ZINC000032503012    0.1100
     10 C10        -8.8978   -1.6371   60.0415 C.3     1  ZINC000032503012   -0.1800
     11 C11        -9.2514    0.5153   61.2209 C.2     1  ZINC000032503012    0.5200
     12 O12        -8.8522    1.6551   61.3324 O.2     1  ZINC000032503012   -0.4900
     13 N13        -9.7007   -0.1502   62.3034 N.am    1  ZINC000032503012   -0.6700
     14 C14        -9.7065    0.4737   63.5558 C.ar    1  ZINC000032503012    0.1300
     15 C15       -10.5251    1.5722   63.7820 C.ar    1  ZINC000032503012   -0.0600
     16 C16       -10.5286    2.1859   65.0194 C.ar    1  ZINC000032503012   -0.1200
     17 C17        -9.7177    1.7079   66.0322 C.ar    1  ZINC000032503012   -0.0300
     18 C18        -8.9009    0.6142   65.8100 C.ar    1  ZINC000032503012   -0.6600
     19 S19        -7.8694    0.0088   67.1039 S.o2    1  ZINC000032503012    2.7000
     20 O20        -8.0399    0.8956   68.2011 O.2     1  ZINC000032503012   -0.9600
     21 O21        -8.1113   -1.3888   67.1893 O.2     1  ZINC000032503012   -0.9500
     22 N22        -6.3008    0.1821   66.6020 N.am    1  ZINC000032503012   -1.1100
     23 C23        -5.7782    1.5117   66.2775 C.3     1  ZINC000032503012    0.1700
     24 C24        -6.1407    2.4894   67.3971 C.3     1  ZINC000032503012   -0.1900
     25 C25        -4.2565    1.4407   66.1351 C.3     1  ZINC000032503012   -0.1500
     26 C26        -6.3917    1.9934   64.9612 C.3     1  ZINC000032503012   -0.1800
     27 C27        -8.8977   -0.0080   64.5771 C.ar    1  ZINC000032503012   -0.0400
     28 C28        -7.5591    2.4489   57.9251 C.ar    1  ZINC000032503012   -0.2100
     29 H29        -7.0801    4.4278   55.7117 H       1  ZINC000032503012    0.0700
     30 H30        -6.7345    5.5645   57.0372 H       1  ZINC000032503012    0.0700
     31 H31        -5.7784    4.0722   56.8724 H       1  ZINC000032503012    0.0700
     32 H32        -8.9995    5.4984   57.9096 H       1  ZINC000032503012    0.1300
     33 H33       -10.6090    4.3151   59.3478 H       1  ZINC000032503012    0.1300
     34 H34       -10.2682    1.9368   59.8817 H       1  ZINC000032503012    0.1300
     35 H35        -8.8934   -2.1232   59.0659 H       1  ZINC000032503012    0.0800
     36 H36        -7.9123   -1.7291   60.4978 H       1  ZINC000032503012    0.0800
     37 H37        -9.6405   -2.1137   60.6814 H       1  ZINC000032503012    0.0800
     38 H38       -10.0200   -1.0619   62.2143 H       1  ZINC000032503012    0.4100
     39 H39       -11.1582    1.9465   62.9911 H       1  ZINC000032503012    0.1400
     40 H40       -11.1651    3.0404   65.1960 H       1  ZINC000032503012    0.1400
     41 H41        -9.7220    2.1898   66.9987 H       1  ZINC000032503012    0.1500
     42 H42        -5.7280   -0.5967   66.5229 H       1  ZINC000032503012    0.4200
     43 H43        -5.8600    2.0605   68.3590 H       1  ZINC000032503012    0.0700
     44 H44        -5.6061    3.4274   67.2475 H       1  ZINC000032503012    0.0800
     45 H45        -7.2145    2.6768   67.3823 H       1  ZINC000032503012    0.0700
     46 H46        -3.9982    0.7442   65.3376 H       1  ZINC000032503012    0.0700
     47 H47        -3.8677    2.4300   65.8937 H       1  ZINC000032503012    0.0700
     48 H48        -3.8196    1.0976   67.0729 H       1  ZINC000032503012    0.0600
     49 H49        -7.4435    2.2334   65.1169 H       1  ZINC000032503012    0.0900
     50 H50        -5.8630    2.8827   64.6180 H       1  ZINC000032503012    0.0700
     51 H51        -6.3056    1.2073   64.2111 H       1  ZINC000032503012    0.0600
     52 H52        -8.2596   -0.8619   64.4042 H       1  ZINC000032503012    0.1400
     53 H53        -6.7018    1.9265   57.5268 H       1  ZINC000032503012    0.1300
@<TRIPOS>BOND
     1     1     2    1
     2     1    29    1
     3     1    30    1
     4     1    31    1
     5     2    28   ar
     6     2     3   ar
     7     3     4   ar
     8     3    32    1
     9     4     5   ar
    10     4    33    1
    11     5     6   ar
    12     5    34    1
    13     6     7    1
    14     6    28   ar
    15     7     8    1
    16     8     9    1
    17     8    10    1
    18     8    11    1
    19    10    35    1
    20    10    36    1
    21    10    37    1
    22    11    12    2
    23    11    13   am
    24    13    14    1
    25    13    38    1
    26    14    27   ar
    27    14    15   ar
    28    15    16   ar
    29    15    39    1
    30    16    17   ar
    31    16    40    1
    32    17    18   ar
    33    17    41    1
    34    18    19    1
    35    18    27   ar
    36    19    20    2
    37    19    21    2
    38    19    22   am
    39    22    23    1
    40    22    42    1
    41    23    24    1
    42    23    25    1
    43    23    26    1
    44    24    43    1
    45    24    44    1
    46    24    45    1
    47    25    46    1
    48    25    47    1
    49    25    48    1
    50    26    49    1
    51    26    50    1
    52    26    51    1
    53    27    52    1
    54    28    53    1
@<TRIPOS>SUBSTRUCTURE
     1 ZINC000032503012        1 TEMP              0 ****  ****    0 ROOT


##########                                Name:    ZINC000487792031
##########                DOCK_Rotatable_Bonds:                  12
##########                         Heavy_Atoms:                  29
##########                    Molecular_Weight:             414.569
##########                DOCK_Rotatable_Bonds:                  12
##########                       Formal_Charge:          -0.0100001
##########                     HBond_Acceptors:                   6
##########                        HBond_Donors:                   1
##########                         Heavy_Atoms:                  29
##########                          Grid_Score:          -32.988419
##########                     Grid_vdw_energy:          -31.787424
##########                      Grid_es_energy:           -1.200993
##########           Internal_energy_repulsive:           18.020145

@<TRIPOS>MOLECULE
ZINC000487792031
 59 60 1 0 0
SMALL
USER_CHARGES


@<TRIPOS>ATOM
      1 C1        -14.0299   -3.8693   55.9902 C.2     1  ZINC000487792031   -0.1900
      2 C2        -12.9012   -3.6788   56.6274 C.2     1  ZINC000487792031   -0.1500
      3 C3        -12.1239   -2.4047   56.4188 C.3     1  ZINC000487792031   -0.0900
      4 C4        -12.5793   -1.3571   57.4366 C.3     1  ZINC000487792031   -0.0900
      5 C5        -12.2181   -1.8261   58.8475 C.3     1  ZINC000487792031   -0.0700
      6 H6        -12.2607   -2.9144   58.8907 H       1  ZINC000487792031    0.1100
      7 C7        -10.8249   -1.3640   59.1892 C.2     1  ZINC000487792031    0.5200
      8 O8         -9.9039   -2.1531   59.1754 O.2     1  ZINC000487792031   -0.5300
      9 N9        -10.6024   -0.0742   59.5102 N.am    1  ZINC000487792031   -0.7200
     10 C10        -9.2485    0.3746   59.8440 C.3     1  ZINC000487792031    0.1500
     11 C11        -9.1166    0.5041   61.3396 C.ar    1  ZINC000487792031   -0.0500
     12 C12        -9.5455    1.6549   61.9742 C.ar    1  ZINC000487792031   -0.1200
     13 C13        -9.4245    1.7737   63.3461 C.ar    1  ZINC000487792031   -0.0200
     14 C14        -8.8750    0.7415   64.0835 C.ar    1  ZINC000487792031   -0.6700
     15 S15        -8.7203    0.8931   65.8321 S.o2    1  ZINC000487792031    2.6900
     16 O16        -9.8961    1.5513   66.2834 O.2     1  ZINC000487792031   -0.9500
     17 O17        -8.3104   -0.3805   66.3106 O.2     1  ZINC000487792031   -0.9500
     18 N18        -7.4626    1.9297   66.1248 N.am    1  ZINC000487792031   -1.0000
     19 C19        -6.1181    1.6050   65.6420 C.3     1  ZINC000487792031    0.1200
     20 C20        -5.3321    0.9062   66.7533 C.3     1  ZINC000487792031   -0.1800
     21 C21        -7.6944    3.1716   66.8667 C.3     1  ZINC000487792031    0.1100
     22 C22        -7.9428    4.3155   65.8814 C.3     1  ZINC000487792031   -0.1800
     23 C23        -8.4472   -0.4098   63.4490 C.ar    1  ZINC000487792031   -0.0200
     24 C24        -8.5718   -0.5301   62.0775 C.ar    1  ZINC000487792031   -0.1200
     25 C25       -13.1964   -1.2453   59.8358 C.ar    1  ZINC000487792031   -0.0800
     26 C26       -13.6577   -2.0165   60.8862 C.ar    1  ZINC000487792031   -0.1100
     27 C27       -14.5551   -1.4837   61.7928 C.ar    1  ZINC000487792031   -0.1100
     28 C28       -14.9907   -0.1797   61.6491 C.ar    1  ZINC000487792031   -0.1200
     29 C29       -14.5287    0.5917   60.5992 C.ar    1  ZINC000487792031   -0.1200
     30 C30       -13.6280    0.0603   59.6951 C.ar    1  ZINC000487792031   -0.1100
     31 H31       -14.5870   -4.7824   56.1397 H       1  ZINC000487792031    0.1000
     32 H32       -14.4055   -3.1113   55.3188 H       1  ZINC000487792031    0.1000
     33 H33       -12.5278   -4.4349   57.3021 H       1  ZINC000487792031    0.1100
     34 H34       -11.0602   -2.6021   56.5517 H       1  ZINC000487792031    0.0700
     35 H35       -12.3009   -2.0321   55.4099 H       1  ZINC000487792031    0.0700
     36 H36       -12.0817   -0.4095   57.2302 H       1  ZINC000487792031    0.0800
     37 H37       -13.6586   -1.2243   57.3631 H       1  ZINC000487792031    0.0700
     38 H38       -11.3388    0.5571   59.5201 H       1  ZINC000487792031    0.4000
     39 H39        -8.5239   -0.3524   59.4769 H       1  ZINC000487792031    0.0800
     40 H40        -9.0609    1.3418   59.3775 H       1  ZINC000487792031    0.0800
     41 H41        -9.9749    2.4612   61.3982 H       1  ZINC000487792031    0.1400
     42 H42        -9.7590    2.6729   63.8419 H       1  ZINC000487792031    0.1400
     43 H43        -6.1919    0.9440   64.7784 H       1  ZINC000487792031    0.0800
     44 H44        -5.6039    2.5221   65.3547 H       1  ZINC000487792031    0.0800
     45 H45        -5.2582    1.5672   67.6169 H       1  ZINC000487792031    0.0600
     46 H46        -5.8462   -0.0109   67.0406 H       1  ZINC000487792031    0.0600
     47 H47        -4.3318    0.6646   66.3941 H       1  ZINC000487792031    0.0700
     48 H48        -8.5649    3.0523   67.5118 H       1  ZINC000487792031    0.0900
     49 H49        -6.8196    3.3999   67.4755 H       1  ZINC000487792031    0.0900
     50 H50        -7.0722    4.4347   65.2363 H       1  ZINC000487792031    0.0600
     51 H51        -8.8176    4.0871   65.2726 H       1  ZINC000487792031    0.0600
     52 H52        -8.1153    5.2394   66.4334 H       1  ZINC000487792031    0.0700
     53 H53        -8.0183   -1.2163   64.0251 H       1  ZINC000487792031    0.1400
     54 H54        -8.2376   -1.4296   61.5818 H       1  ZINC000487792031    0.1400
     55 H55       -13.3173   -3.0352   60.9984 H       1  ZINC000487792031    0.1200
     56 H56       -14.9160   -2.0864   62.6130 H       1  ZINC000487792031    0.1200
     57 H57       -15.6923    0.2363   62.3570 H       1  ZINC000487792031    0.1200
     58 H58       -14.8693    1.6104   60.4868 H       1  ZINC000487792031    0.1200
     59 H59       -13.2670    0.6631   58.8748 H       1  ZINC000487792031    0.1200
@<TRIPOS>BOND
     1     1     2    2
     2     1    31    1
     3     1    32    1
     4     2     3    1
     5     2    33    1
     6     3     4    1
     7     3    34    1
     8     3    35    1
     9     4     5    1
    10     4    36    1
    11     4    37    1
    12     5     6    1
    13     5     7    1
    14     5    25    1
    15     7     8    2
    16     7     9   am
    17     9    10    1
    18     9    38    1
    19    10    11    1
    20    10    39    1
    21    10    40    1
    22    11    24   ar
    23    11    12   ar
    24    12    13   ar
    25    12    41    1
    26    13    14   ar
    27    13    42    1
    28    14    15    1
    29    14    23   ar
    30    15    16    2
    31    15    17    2
    32    15    18   am
    33    18    19    1
    34    18    21    1
    35    19    20    1
    36    19    43    1
    37    19    44    1
    38    20    45    1
    39    20    46    1
    40    20    47    1
    41    21    22    1
    42    21    48    1
    43    21    49    1
    44    22    50    1
    45    22    51    1
    46    22    52    1
    47    23    24   ar
    48    23    53    1
    49    24    54    1
    50    25    30   ar
    51    25    26   ar
    52    26    27   ar
    53    26    55    1
    54    27    28   ar
    55    27    56    1
    56    28    29   ar
    57    28    57    1
    58    29    30   ar
    59    29    58    1
    60    30    59    1
@<TRIPOS>SUBSTRUCTURE
     1 ZINC000487792031        1 TEMP              0 ****  ****    0 ROOT


##########                                Name:    ZINC000114394234
##########                DOCK_Rotatable_Bonds:                   9
##########                         Heavy_Atoms:                  27
##########                    Molecular_Weight:             365.392
##########                DOCK_Rotatable_Bonds:                   9
##########                       Formal_Charge:           0.0300002
##########                     HBond_Acceptors:                   8
##########                        HBond_Donors:                   3
##########                         Heavy_Atoms:                  27
##########                          Grid_Score:          -32.956310
##########                     Grid_vdw_energy:          -30.059515
##########                      Grid_es_energy:           -2.896797
##########           Internal_energy_repulsive:           16.383427

@<TRIPOS>MOLECULE
ZINC000114394234
 46 48 1 0 0
SMALL
USER_CHARGES


@<TRIPOS>ATOM
      1 C1        -13.6016   -3.8028   56.0951 C.3     1  ZINC000114394234   -0.1600
      2 C2        -12.4953   -2.7461   56.0776 C.3     1  ZINC000114394234    0.1300
      3 H3        -11.5237   -3.2379   56.0300 H       1  ZINC000114394234    0.1200
      4 N4        -12.6633   -1.8825   54.9061 N.am    1  ZINC000114394234   -0.7100
      5 C5        -11.9727   -2.1367   53.7769 C.2     1  ZINC000114394234    0.5200
      6 O6        -11.2110   -3.0794   53.7312 O.2     1  ZINC000114394234   -0.5100
      7 C7        -12.1469   -1.2496   52.5714 C.3     1  ZINC000114394234    0.0400
      8 O8        -10.8975   -1.1215   51.8896 O.3     1  ZINC000114394234   -0.2900
      9 C9         -9.9422   -0.3635   52.4893 C.ar    1  ZINC000114394234    0.1300
     10 C10       -10.2493    0.3695   53.6265 C.ar    1  ZINC000114394234   -0.2100
     11 C11        -9.2762    1.1389   54.2346 C.ar    1  ZINC000114394234   -0.0800
     12 C12        -7.9974    1.1791   53.7106 C.ar    1  ZINC000114394234   -0.1600
     13 C13        -7.6890    0.4499   52.5771 C.ar    1  ZINC000114394234   -0.0800
     14 C14        -8.6569   -0.3259   51.9688 C.ar    1  ZINC000114394234   -0.1500
     15 C15       -12.5759   -1.9135   57.3311 C.2     1  ZINC000114394234    0.5100
     16 O16       -13.0057   -0.7804   57.2799 O.2     1  ZINC000114394234   -0.5100
     17 N17       -12.1706   -2.4279   58.5090 N.am    1  ZINC000114394234   -0.6700
     18 C18       -12.2455   -1.6547   59.6730 C.ar    1  ZINC000114394234    0.1300
     19 C19       -13.4834   -1.2744   60.1760 C.ar    1  ZINC000114394234   -0.1200
     20 C20       -13.5613   -0.5108   61.3255 C.ar    1  ZINC000114394234   -0.1000
     21 C21       -12.4099   -0.1214   61.9797 C.ar    1  ZINC000114394234   -0.0900
     22 C22       -11.1637   -0.4980   61.4818 C.ar    1  ZINC000114394234    0.0000
     23 C23        -9.9247   -0.0797   62.1837 C.2     1  ZINC000114394234    0.2700
     24 N24        -8.8049   -0.7669   62.2372 N.2     1  ZINC000114394234   -0.3000
     25 N25        -7.9008   -0.0073   62.9973 N.pl3   1  ZINC000114394234   -0.4800
     26 C26        -8.5521    1.1128   63.3591 C.2     1  ZINC000114394234    0.2700
     27 N27        -9.7601    1.0632   62.8631 N.2     1  ZINC000114394234   -0.5300
     28 C28       -11.0843   -1.2726   60.3281 C.ar    1  ZINC000114394234   -0.0800
     29 H29       -14.5731   -3.3110   56.1427 H       1  ZINC000114394234    0.0700
     30 H30       -13.5432   -4.4050   55.1884 H       1  ZINC000114394234    0.0800
     31 H31       -13.4765   -4.4453   56.9667 H       1  ZINC000114394234    0.0800
     32 H32       -13.2716   -1.1279   54.9431 H       1  ZINC000114394234    0.4100
     33 H33       -12.8839   -1.6897   51.8997 H       1  ZINC000114394234    0.1000
     34 H34       -12.4889   -0.2651   52.8909 H       1  ZINC000114394234    0.1000
     35 H35       -11.2483    0.3390   54.0358 H       1  ZINC000114394234    0.1300
     36 H36        -9.5149    1.7096   55.1198 H       1  ZINC000114394234    0.1300
     37 H37        -7.2382    1.7814   54.1872 H       1  ZINC000114394234    0.1300
     38 H38        -6.6894    0.4832   52.1695 H       1  ZINC000114394234    0.1300
     39 H39        -8.4154   -0.8954   51.0834 H       1  ZINC000114394234    0.1300
     40 H40       -11.8270   -3.3341   58.5499 H       1  ZINC000114394234    0.4200
     41 H41       -14.3872   -1.5760   59.6675 H       1  ZINC000114394234    0.1300
     42 H42       -14.5260   -0.2176   61.7127 H       1  ZINC000114394234    0.1400
     43 H43       -12.4746    0.4756   62.8774 H       1  ZINC000114394234    0.1400
     44 H44        -6.9864   -0.2439   63.2182 H       1  ZINC000114394234    0.4400
     45 H45        -8.1448    1.9173   63.9536 H       1  ZINC000114394234    0.2300
     46 H46       -10.1210   -1.5669   59.9385 H       1  ZINC000114394234    0.1500
@<TRIPOS>BOND
     1     1     2    1
     2     1    29    1
     3     1    30    1
     4     1    31    1
     5     2     3    1
     6     2     4    1
     7     2    15    1
     8     4     5   am
     9     4    32    1
    10     5     6    2
    11     5     7    1
    12     7     8    1
    13     7    33    1
    14     7    34    1
    15     8     9    1
    16     9    14   ar
    17     9    10   ar
    18    10    11   ar
    19    10    35    1
    20    11    12   ar
    21    11    36    1
    22    12    13   ar
    23    12    37    1
    24    13    14   ar
    25    13    38    1
    26    14    39    1
    27    15    16    2
    28    15    17   am
    29    17    18    1
    30    17    40    1
    31    18    28   ar
    32    18    19   ar
    33    19    20   ar
    34    19    41    1
    35    20    21   ar
    36    20    42    1
    37    21    22   ar
    38    21    43    1
    39    22    23    1
    40    22    28   ar
    41    23    27    1
    42    23    24    2
    43    24    25    1
    44    25    26    1
    45    25    44    1
    46    26    27    2
    47    26    45    1
    48    28    46    1
@<TRIPOS>SUBSTRUCTURE
     1 ZINC000114394234        1 TEMP              0 ****  ****    0 ROOT


##########                                Name:    ZINC000502834785
##########                DOCK_Rotatable_Bonds:                   9
##########                         Heavy_Atoms:                  26
##########                    Molecular_Weight:             356.468
##########                DOCK_Rotatable_Bonds:                   9
##########                       Formal_Charge:           0.0199998
##########                     HBond_Acceptors:                   6
##########                        HBond_Donors:                   2
##########                         Heavy_Atoms:                  26
##########                          Grid_Score:          -32.914421
##########                     Grid_vdw_energy:          -31.439571
##########                      Grid_es_energy:           -1.474852
##########           Internal_energy_repulsive:           15.592494

@<TRIPOS>MOLECULE
ZINC000502834785
 54 56 1 0 0
SMALL
USER_CHARGES


@<TRIPOS>ATOM
      1 C1         -9.7632    1.5975   66.7540 C.3     1  ZINC000502834785   -0.1800
      2 C2         -8.6787    0.8461   65.9793 C.3     1  ZINC000502834785    0.0800
      3 C3         -8.0038   -0.1702   66.9027 C.3     1  ZINC000502834785   -0.1500
      4 O4         -9.2705    0.1639   64.8718 O.3     1  ZINC000502834785   -0.3800
      5 C5         -9.1262    0.8462   63.6245 C.3     1  ZINC000502834785    0.1000
      6 C6         -9.5922   -0.0490   62.5054 C.ar    1  ZINC000502834785   -0.0800
      7 C7        -10.9286   -0.0758   62.1527 C.ar    1  ZINC000502834785   -0.1000
      8 C8        -11.3561   -0.8969   61.1261 C.ar    1  ZINC000502834785   -0.1000
      9 C9        -10.4472   -1.6909   60.4520 C.ar    1  ZINC000502834785   -0.1000
     10 C10       -10.9134   -2.5865   59.3331 C.3     1  ZINC000502834785    0.1600
     11 N11       -10.9468   -1.8266   58.0810 N.am    1  ZINC000502834785   -0.7300
     12 C12       -11.2938   -2.4376   56.9310 C.2     1  ZINC000502834785    0.5100
     13 O13       -11.5797   -3.6162   56.9328 O.2     1  ZINC000502834785   -0.5200
     14 C14       -11.3265   -1.6563   55.6428 C.3     1  ZINC000502834785    0.0300
     15 N15       -12.6411   -1.0188   55.4900 N.3     1  ZINC000502834785   -0.5000
     16 C16       -13.6991   -2.0298   55.2797 C.3     1  ZINC000502834785    0.0500
     17 C17       -14.7169   -1.3464   54.3328 C.3     1  ZINC000502834785   -0.1300
     18 C18       -13.7804   -0.5351   53.3992 C.3     1  ZINC000502834785   -0.1300
     19 C19       -12.6473   -0.0879   54.3466 C.3     1  ZINC000502834785    0.1500
     20 H20       -12.8350    0.9274   54.6959 H       1  ZINC000502834785    0.1100
     21 C21       -11.3246   -0.1458   53.6269 C.2     1  ZINC000502834785    0.0600
     22 N22       -10.3552    0.7267   53.7319 N.2     1  ZINC000502834785   -0.2900
     23 N23        -9.3025    0.3129   52.9055 N.pl3   1  ZINC000502834785   -0.4800
     24 C24        -9.6743   -0.8359   52.3031 C.2     1  ZINC000502834785    0.0600
     25 C25       -10.9186   -1.1447   52.7360 C.2     1  ZINC000502834785   -0.2600
     26 C26        -9.1107   -1.6630   60.8038 C.ar    1  ZINC000502834785   -0.1000
     27 C27        -8.6825   -0.8390   61.8278 C.ar    1  ZINC000502834785   -0.1000
     28 H28       -10.2440    2.3215   66.0962 H       1  ZINC000502834785    0.0600
     29 H29       -10.5064    0.8885   67.1190 H       1  ZINC000502834785    0.0600
     30 H30        -9.3119    2.1178   67.5988 H       1  ZINC000502834785    0.0700
     31 H31        -7.9355    1.5550   65.6144 H       1  ZINC000502834785    0.0600
     32 H32        -8.7470   -0.8791   67.2676 H       1  ZINC000502834785    0.0600
     33 H33        -7.2312   -0.7055   66.3508 H       1  ZINC000502834785    0.0600
     34 H34        -7.5524    0.3501   67.7474 H       1  ZINC000502834785    0.0700
     35 H35        -9.7267    1.7558   63.6363 H       1  ZINC000502834785    0.0600
     36 H36        -8.0784    1.1046   63.4708 H       1  ZINC000502834785    0.0600
     37 H37       -11.6387    0.5445   62.6794 H       1  ZINC000502834785    0.1300
     38 H38       -12.4002   -0.9185   60.8511 H       1  ZINC000502834785    0.1300
     39 H39       -10.2265   -3.4265   59.2300 H       1  ZINC000502834785    0.0800
     40 H40       -11.9124   -2.9594   59.5585 H       1  ZINC000502834785    0.0800
     41 H41       -10.7193   -0.8836   58.0798 H       1  ZINC000502834785    0.4000
     42 H42       -10.5513   -0.8902   55.6627 H       1  ZINC000502834785    0.1000
     43 H43       -11.1499   -2.3302   54.8045 H       1  ZINC000502834785    0.0800
     44 H44       -13.2838   -2.9216   54.8104 H       1  ZINC000502834785    0.0400
     45 H45       -14.1741   -2.2848   56.2271 H       1  ZINC000502834785    0.1000
     46 H46       -15.2841   -2.0871   53.7690 H       1  ZINC000502834785    0.0800
     47 H47       -15.3833   -0.6857   54.8872 H       1  ZINC000502834785    0.0800
     48 H48       -13.3892   -1.1672   52.6019 H       1  ZINC000502834785    0.0800
     49 H49       -14.3015    0.3289   52.9869 H       1  ZINC000502834785    0.0800
     50 H50        -8.4557    0.7711   52.7874 H       1  ZINC000502834785    0.4400
     51 H51        -9.0830   -1.4086   51.6039 H       1  ZINC000502834785    0.1800
     52 H52       -11.4984   -2.0068   52.4408 H       1  ZINC000502834785    0.1500
     53 H53        -8.4005   -2.2830   60.2768 H       1  ZINC000502834785    0.1300
     54 H54        -7.6383   -0.8172   62.1026 H       1  ZINC000502834785    0.1200
@<TRIPOS>BOND
     1     1     2    1
     2     1    28    1
     3     1    29    1
     4     1    30    1
     5     2     3    1
     6     2     4    1
     7     2    31    1
     8     3    32    1
     9     3    33    1
    10     3    34    1
    11     4     5    1
    12     5     6    1
    13     5    35    1
    14     5    36    1
    15     6    27   ar
    16     6     7   ar
    17     7     8   ar
    18     7    37    1
    19     8     9   ar
    20     8    38    1
    21     9    10    1
    22     9    26   ar
    23    10    11    1
    24    10    39    1
    25    10    40    1
    26    11    12   am
    27    11    41    1
    28    12    13    2
    29    12    14    1
    30    14    15    1
    31    14    42    1
    32    14    43    1
    33    15    19    1
    34    15    16    1
    35    16    17    1
    36    16    44    1
    37    16    45    1
    38    17    18    1
    39    17    46    1
    40    17    47    1
    41    18    19    1
    42    18    48    1
    43    18    49    1
    44    19    20    1
    45    19    21    1
    46    21    25    1
    47    21    22    2
    48    22    23    1
    49    23    24    1
    50    23    50    1
    51    24    25    2
    52    24    51    1
    53    25    52    1
    54    26    27   ar
    55    26    53    1
    56    27    54    1
@<TRIPOS>SUBSTRUCTURE
     1 ZINC000502834785        1 TEMP              0 ****  ****    0 ROOT


##########                                Name:    ZINC000766421809
##########                DOCK_Rotatable_Bonds:                   7
##########                         Heavy_Atoms:                  26
##########                    Molecular_Weight:             358.372
##########                DOCK_Rotatable_Bonds:                   7
##########                       Formal_Charge:         4.61936e-07
##########                     HBond_Acceptors:                   8
##########                        HBond_Donors:                   0
##########                         Heavy_Atoms:                  26
##########                          Grid_Score:          -32.911572
##########                     Grid_vdw_energy:          -33.544201
##########                      Grid_es_energy:            0.632628
##########           Internal_energy_repulsive:            6.184668

@<TRIPOS>MOLECULE
ZINC000766421809
 45 47 1 0 0
SMALL
USER_CHARGES


@<TRIPOS>ATOM
      1 C1         -5.1169    1.7258   51.0641 C.3     1  ZINC000766421809   -0.0700
      2 C2         -3.8130    2.3047   51.5499 C.2     1  ZINC000766421809    0.0700
      3 N3         -3.6128    2.8790   52.7082 N.2     1  ZINC000766421809   -0.2900
      4 N4         -2.2718    3.2790   52.7725 N.pl3   1  ZINC000766421809   -0.3700
      5 C5         -1.6290    3.9612   53.8984 C.3     1  ZINC000766421809    0.1000
      6 C6         -1.6767    2.9250   51.6142 C.2     1  ZINC000766421809    0.0700
      7 C7         -0.2340    3.1604   51.2482 C.3     1  ZINC000766421809    0.1400
      8 O8          0.5362    1.9599   51.5195 O.3     1  ZINC000766421809   -0.3400
      9 C9          1.8638    2.0329   51.3344 C.2     1  ZINC000766421809    0.4700
     10 O10         2.3953    3.1081   51.1888 O.2     1  ZINC000766421809   -0.5000
     11 C11         2.6911    0.7736   51.3082 C.3     1  ZINC000766421809   -0.1100
     12 C12         3.5873    0.7779   50.0681 C.3     1  ZINC000766421809   -0.0200
     13 C13         2.7411    0.5858   48.8360 C.2     1  ZINC000766421809    0.1900
     14 N14         3.0082    1.0275   47.6323 N.2     1  ZINC000766421809   -0.4700
     15 C15         1.9770    0.6194   46.8585 C.2     1  ZINC000766421809    0.2200
     16 C16         1.8121    0.8716   45.4056 C.ar    1  ZINC000766421809   -0.0300
     17 C17         2.7772    1.5955   44.7083 C.ar    1  ZINC000766421809   -0.0500
     18 C18         2.6202    1.8274   43.3572 C.ar    1  ZINC000766421809   -0.1500
     19 C19         1.5048    1.3420   42.6941 C.ar    1  ZINC000766421809    0.1200
     20 F20         1.3547    1.5716   41.3712 F       1  ZINC000766421809   -0.1300
     21 C21         0.5428    0.6212   43.3837 C.ar    1  ZINC000766421809   -0.1200
     22 C22        -0.6679    0.0949   42.6568 C.3     1  ZINC000766421809   -0.1200
     23 C23         0.6944    0.3803   44.7334 C.ar    1  ZINC000766421809   -0.0600
     24 N24         1.1524   -0.0397   47.6306 N.2     1  ZINC000766421809   -0.3700
     25 O25         1.5798   -0.0722   48.7652 O.3     1  ZINC000766421809    0.0900
     26 C26        -2.6064    2.3156   50.8425 C.2     1  ZINC000766421809   -0.2400
     27 H27        -5.1815    0.6784   51.3590 H       1  ZINC000766421809    0.0800
     28 H28        -5.9465    2.2790   51.5043 H       1  ZINC000766421809    0.0700
     29 H29        -5.1656    1.8011   49.9778 H       1  ZINC000766421809    0.0800
     30 H30        -1.2182    3.2212   54.5851 H       1  ZINC000766421809    0.0800
     31 H31        -0.8256    4.5976   53.5269 H       1  ZINC000766421809    0.0900
     32 H32        -2.3647    4.5727   54.4208 H       1  ZINC000766421809    0.0900
     33 H33        -0.1634    3.4058   50.1886 H       1  ZINC000766421809    0.0900
     34 H34         0.1606    3.9867   51.8395 H       1  ZINC000766421809    0.0900
     35 H35         3.3106    0.7270   52.2039 H       1  ZINC000766421809    0.1200
     36 H36         2.0318   -0.0938   51.2768 H       1  ZINC000766421809    0.1200
     37 H37         4.1129    1.7306   50.0030 H       1  ZINC000766421809    0.1200
     38 H38         4.3123   -0.0327   50.1409 H       1  ZINC000766421809    0.1200
     39 H39         3.6467    1.9747   45.2246 H       1  ZINC000766421809    0.1500
     40 H40         3.3677    2.3883   42.8159 H       1  ZINC000766421809    0.1500
     41 H41        -0.4562   -0.9032   42.2736 H       1  ZINC000766421809    0.0800
     42 H42        -1.5127    0.0486   43.3441 H       1  ZINC000766421809    0.0800
     43 H43        -0.9106    0.7588   41.8271 H       1  ZINC000766421809    0.0700
     44 H44        -0.0558   -0.1815   45.2701 H       1  ZINC000766421809    0.1400
     45 H45        -2.4464    1.9142   49.8527 H       1  ZINC000766421809    0.1500
@<TRIPOS>BOND
     1     1     2    1
     2     1    27    1
     3     1    28    1
     4     1    29    1
     5     2    26    1
     6     2     3    2
     7     3     4    1
     8     4     5    1
     9     4     6    1
    10     5    30    1
    11     5    31    1
    12     5    32    1
    13     6     7    1
    14     6    26    2
    15     7     8    1
    16     7    33    1
    17     7    34    1
    18     8     9    1
    19     9    10    2
    20     9    11    1
    21    11    12    1
    22    11    35    1
    23    11    36    1
    24    12    13    1
    25    12    37    1
    26    12    38    1
    27    13    25    1
    28    13    14    2
    29    14    15    1
    30    15    16    1
    31    15    24    2
    32    16    23   ar
    33    16    17   ar
    34    17    18   ar
    35    17    39    1
    36    18    19   ar
    37    18    40    1
    38    19    20    1
    39    19    21   ar
    40    21    22    1
    41    21    23   ar
    42    22    41    1
    43    22    42    1
    44    22    43    1
    45    23    44    1
    46    24    25    1
    47    26    45    1
@<TRIPOS>SUBSTRUCTURE
     1 ZINC000766421809        1 TEMP              0 ****  ****    0 ROOT


##########                                Name:    ZINC000914736341
##########                DOCK_Rotatable_Bonds:                   7
##########                         Heavy_Atoms:                  27
##########                    Molecular_Weight:             384.905
##########                DOCK_Rotatable_Bonds:                   7
##########                       Formal_Charge:                0.02
##########                     HBond_Acceptors:                   5
##########                        HBond_Donors:                   1
##########                         Heavy_Atoms:                  27
##########                          Grid_Score:          -32.880966
##########                     Grid_vdw_energy:          -32.339359
##########                      Grid_es_energy:           -0.541607
##########           Internal_energy_repulsive:           28.131281

@<TRIPOS>MOLECULE
ZINC000914736341
 52 54 1 0 0
SMALL
USER_CHARGES


@<TRIPOS>ATOM
      1 C1        -13.6963   -0.9888   55.9256 C.3     1  ZINC000914736341   -0.1400
      2 C2        -12.8740   -2.2751   55.8246 C.3     1  ZINC000914736341   -0.0300
      3 C3        -13.8085   -3.4846   55.8932 C.3     1  ZINC000914736341   -0.1400
      4 C4        -12.1147   -2.2919   54.4965 C.3     1  ZINC000914736341    0.1300
      5 N5        -11.1513   -1.1885   54.4707 N.am    1  ZINC000914736341   -0.7200
      6 C6        -10.5813   -0.8187   53.3067 C.2     1  ZINC000914736341    0.5300
      7 O7        -10.8647   -1.4003   52.2809 O.2     1  ZINC000914736341   -0.5300
      8 C8         -9.5917    0.3176   53.2799 C.3     1  ZINC000914736341   -0.1200
      9 H9         -9.3880    0.6786   54.2880 H       1  ZINC000914736341    0.1200
     10 C10       -10.0910    1.4650   52.3715 C.3     1  ZINC000914736341   -0.1400
     11 C11        -8.8362    1.9814   51.7027 C.2     1  ZINC000914736341    0.5200
     12 O12        -8.7416    3.0477   51.1326 O.2     1  ZINC000914736341   -0.5200
     13 N13        -7.8414    1.0868   51.8326 N.am    1  ZINC000914736341   -0.6100
     14 C14        -6.4868    1.2752   51.3076 C.3     1  ZINC000914736341    0.1600
     15 C15        -5.8445    2.4572   51.9870 C.ar    1  ZINC000914736341   -0.1000
     16 C16        -6.1352    2.7364   53.3088 C.ar    1  ZINC000914736341   -0.0800
     17 C17        -5.5461    3.8208   53.9322 C.ar    1  ZINC000914736341   -0.1100
     18 C18        -4.6666    4.6264   53.2338 C.ar    1  ZINC000914736341   -0.1000
     19 C19        -4.3750    4.3481   51.9116 C.ar    1  ZINC000914736341   -0.1100
     20 C20        -4.9594    3.2597   51.2891 C.ar    1  ZINC000914736341   -0.0300
     21 Cl21       -4.5937    2.9095   49.6285 Cl      1  ZINC000914736341   -0.0600
     22 C22        -8.2863   -0.1029   52.5689 C.3     1  ZINC000914736341    0.1000
     23 C23       -11.8915   -2.3341   56.9658 C.ar    1  ZINC000914736341   -0.0700
     24 C24       -11.3816   -1.1657   57.4999 C.ar    1  ZINC000914736341   -0.1200
     25 C25       -10.4803   -1.2198   58.5468 C.ar    1  ZINC000914736341   -0.1200
     26 C26       -10.0893   -2.4426   59.0595 C.ar    1  ZINC000914736341   -0.1200
     27 C27       -10.5999   -3.6110   58.5259 C.ar    1  ZINC000914736341   -0.1200
     28 C28       -11.5044   -3.5567   57.4820 C.ar    1  ZINC000914736341   -0.1100
     29 H29       -14.2374   -0.9768   56.8718 H       1  ZINC000914736341    0.0600
     30 H30       -13.0306   -0.1272   55.8768 H       1  ZINC000914736341    0.0600
     31 H31       -14.4069   -0.9461   55.1002 H       1  ZINC000914736341    0.0600
     32 H32       -14.5191   -3.4419   55.0677 H       1  ZINC000914736341    0.0600
     33 H33       -13.2227   -4.4010   55.8211 H       1  ZINC000914736341    0.0600
     34 H34       -14.3495   -3.4726   56.8393 H       1  ZINC000914736341    0.0600
     35 H35       -11.5852   -3.2390   54.3925 H       1  ZINC000914736341    0.0700
     36 H36       -12.8200   -2.1777   53.6733 H       1  ZINC000914736341    0.0700
     37 H37       -10.9238   -0.7241   55.2913 H       1  ZINC000914736341    0.4000
     38 H38       -10.7913    1.0853   51.6275 H       1  ZINC000914736341    0.1100
     39 H39       -10.5557    2.2496   52.9687 H       1  ZINC000914736341    0.1100
     40 H40        -5.8950    0.3800   51.4997 H       1  ZINC000914736341    0.1000
     41 H41        -6.5350    1.4553   50.2337 H       1  ZINC000914736341    0.1000
     42 H42        -6.8229    2.1078   53.8548 H       1  ZINC000914736341    0.1400
     43 H43        -5.7735    4.0387   54.9653 H       1  ZINC000914736341    0.1300
     44 H44        -4.2072    5.4738   53.7211 H       1  ZINC000914736341    0.1300
     45 H45        -3.6878    4.9776   51.3659 H       1  ZINC000914736341    0.1400
     46 H46        -7.5343   -0.3962   53.3014 H       1  ZINC000914736341    0.1000
     47 H47        -8.4811   -0.9231   51.8781 H       1  ZINC000914736341    0.0900
     48 H48       -11.6871   -0.2104   57.0993 H       1  ZINC000914736341    0.1300
     49 H49       -10.0814   -0.3069   58.9636 H       1  ZINC000914736341    0.1200
     50 H50        -9.3845   -2.4849   59.8769 H       1  ZINC000914736341    0.1200
     51 H51       -10.2941   -4.5663   58.9263 H       1  ZINC000914736341    0.1200
     52 H52       -11.9033   -4.4697   57.0651 H       1  ZINC000914736341    0.1200
@<TRIPOS>BOND
     1     1     2    1
     2     1    29    1
     3     1    30    1
     4     1    31    1
     5     2     3    1
     6     2     4    1
     7     2    23    1
     8     3    32    1
     9     3    33    1
    10     3    34    1
    11     4     5    1
    12     4    35    1
    13     4    36    1
    14     5     6   am
    15     5    37    1
    16     6     7    2
    17     6     8    1
    18     8     9    1
    19     8    22    1
    20     8    10    1
    21    10    11    1
    22    10    38    1
    23    10    39    1
    24    11    12    2
    25    11    13   am
    26    13    14    1
    27    13    22    1
    28    14    15    1
    29    14    40    1
    30    14    41    1
    31    15    20   ar
    32    15    16   ar
    33    16    17   ar
    34    16    42    1
    35    17    18   ar
    36    17    43    1
    37    18    19   ar
    38    18    44    1
    39    19    20   ar
    40    19    45    1
    41    20    21    1
    42    22    46    1
    43    22    47    1
    44    23    28   ar
    45    23    24   ar
    46    24    25   ar
    47    24    48    1
    48    25    26   ar
    49    25    49    1
    50    26    27   ar
    51    26    50    1
    52    27    28   ar
    53    27    51    1
    54    28    52    1
@<TRIPOS>SUBSTRUCTURE
     1 ZINC000914736341        1 TEMP              0 ****  ****    0 ROOT


##########                                Name:    ZINC000912668252
##########                DOCK_Rotatable_Bonds:                  10
##########                         Heavy_Atoms:                  30
##########                    Molecular_Weight:             411.433
##########                DOCK_Rotatable_Bonds:                  10
##########                       Formal_Charge:           0.0199993
##########                     HBond_Acceptors:                   8
##########                        HBond_Donors:                   2
##########                         Heavy_Atoms:                  30
##########                          Grid_Score:          -32.875381
##########                     Grid_vdw_energy:          -33.575176
##########                      Grid_es_energy:            0.699796
##########           Internal_energy_repulsive:           17.079304

@<TRIPOS>MOLECULE
ZINC000912668252
 52 54 1 0 0
SMALL
USER_CHARGES


@<TRIPOS>ATOM
      1 C1         -6.4321    4.7224   52.7414 C.3     1  ZINC000912668252   -0.1700
      2 C2         -5.4447    3.6178   53.1234 C.3     1  ZINC000912668252    0.1100
      3 N3         -4.2549    3.7111   52.2738 N.am    1  ZINC000912668252   -0.6100
      4 C4         -4.4000    3.8473   50.8224 C.3     1  ZINC000912668252    0.1000
      5 C5         -4.7523    2.4877   50.2154 C.3     1  ZINC000912668252   -0.1800
      6 C6         -3.0267    3.6717   52.8275 C.2     1  ZINC000912668252    0.5600
      7 O7         -2.9064    3.5589   54.0318 O.2     1  ZINC000912668252   -0.5300
      8 C8         -1.8259    3.7659   51.9700 C.ar    1  ZINC000912668252   -0.1100
      9 C9         -1.3622    5.0132   51.5489 C.ar    1  ZINC000912668252   -0.1100
     10 C10        -0.2407    5.0984   50.7488 C.ar    1  ZINC000912668252   -0.1000
     11 C11         0.4267    3.9514   50.3622 C.ar    1  ZINC000912668252   -0.1200
     12 C12        -0.0270    2.7046   50.7763 C.ar    1  ZINC000912668252    0.1400
     13 N13         0.6527    1.5464   50.3823 N.am    1  ZINC000912668252   -0.6700
     14 C14         1.8317    1.2296   50.9536 C.2     1  ZINC000912668252    0.5200
     15 O15         2.3035    1.9483   51.8090 O.2     1  ZINC000912668252   -0.4900
     16 C16         2.5635   -0.0175   50.5293 C.3     1  ZINC000912668252    0.0500
     17 O17         2.3356   -0.2550   49.1151 O.3     1  ZINC000912668252   -0.3300
     18 C18         2.8296    0.6573   48.2538 C.2     1  ZINC000912668252    0.5400
     19 O19         3.7208    1.4057   48.6058 O.2     1  ZINC000912668252   -0.4800
     20 C20         2.2910    0.7471   46.8901 C.2     1  ZINC000912668252    0.0400
     21 C21         2.7547    1.5698   45.9120 C.2     1  ZINC000912668252   -0.0900
     22 C22         1.9682    1.3510   44.7557 C.ar    1  ZINC000912668252   -0.1000
     23 C23         1.9796    1.9003   43.4669 C.ar    1  ZINC000912668252   -0.0900
     24 C24         1.0699    1.4763   42.5396 C.ar    1  ZINC000912668252    0.0700
     25 F25         1.0826    2.0074   41.2974 F       1  ZINC000912668252   -0.1400
     26 C26         0.1313    0.5023   42.8635 C.ar    1  ZINC000912668252   -0.1100
     27 C27         0.1011   -0.0514   44.1240 C.ar    1  ZINC000912668252   -0.1000
     28 C28         1.0178    0.3647   45.0853 C.ar    1  ZINC000912668252    0.1100
     29 N29         1.2362    0.0046   46.3948 N.pl3   1  ZINC000912668252   -0.5600
     30 C30        -1.1491    2.6088   51.5841 C.ar    1  ZINC000912668252   -0.0700
     31 H31        -7.3174    4.6530   53.3736 H       1  ZINC000912668252    0.0700
     32 H32        -5.9609    5.6953   52.8815 H       1  ZINC000912668252    0.0600
     33 H33        -6.7214    4.6058   51.6970 H       1  ZINC000912668252    0.0600
     34 H34        -5.1554    3.7345   54.1679 H       1  ZINC000912668252    0.0800
     35 H35        -5.9159    2.6450   52.9834 H       1  ZINC000912668252    0.0900
     36 H36        -5.1943    4.5604   50.6019 H       1  ZINC000912668252    0.0900
     37 H37        -3.4627    4.2039   50.3954 H       1  ZINC000912668252    0.0800
     38 H38        -3.8433    1.8995   50.0896 H       1  ZINC000912668252    0.0600
     39 H39        -5.4376    1.9601   50.8788 H       1  ZINC000912668252    0.0700
     40 H40        -5.2269    2.6349   49.2452 H       1  ZINC000912668252    0.0700
     41 H41        -1.8812    5.9116   51.8486 H       1  ZINC000912668252    0.1400
     42 H42         0.1162    6.0643   50.4236 H       1  ZINC000912668252    0.1400
     43 H43         1.3035    4.0243   49.7358 H       1  ZINC000912668252    0.1300
     44 H44         0.2753    0.9716   49.6982 H       1  ZINC000912668252    0.4200
     45 H45         3.6312    0.1088   50.7092 H       1  ZINC000912668252    0.1100
     46 H46         2.1963   -0.8676   51.1043 H       1  ZINC000912668252    0.1100
     47 H47         3.5755    2.2660   46.0015 H       1  ZINC000912668252    0.1700
     48 H48         2.7050    2.6571   43.2071 H       1  ZINC000912668252    0.1400
     49 H49        -0.5809    0.1774   42.1195 H       1  ZINC000912668252    0.1400
     50 H50        -0.6319   -0.8065   44.3661 H       1  ZINC000912668252    0.1400
     51 H51         0.7317   -0.6599   46.8896 H       1  ZINC000912668252    0.4300
     52 H52        -1.5032    1.6408   51.9070 H       1  ZINC000912668252    0.1400
@<TRIPOS>BOND
     1     1     2    1
     2     1    31    1
     3     1    32    1
     4     1    33    1
     5     2     3    1
     6     2    34    1
     7     2    35    1
     8     3     4    1
     9     3     6   am
    10     4     5    1
    11     4    36    1
    12     4    37    1
    13     5    38    1
    14     5    39    1
    15     5    40    1
    16     6     7    2
    17     6     8    1
    18     8    30   ar
    19     8     9   ar
    20     9    10   ar
    21     9    41    1
    22    10    11   ar
    23    10    42    1
    24    11    12   ar
    25    11    43    1
    26    12    13    1
    27    12    30   ar
    28    13    14   am
    29    13    44    1
    30    14    15    2
    31    14    16    1
    32    16    17    1
    33    16    45    1
    34    16    46    1
    35    17    18    1
    36    18    19    2
    37    18    20    1
    38    20    29    1
    39    20    21    2
    40    21    22    1
    41    21    47    1
    42    22    28   ar
    43    22    23   ar
    44    23    24   ar
    45    23    48    1
    46    24    25    1
    47    24    26   ar
    48    26    27   ar
    49    26    49    1
    50    27    28   ar
    51    27    50    1
    52    28    29    1
    53    29    51    1
    54    30    52    1
@<TRIPOS>SUBSTRUCTURE
     1 ZINC000912668252        1 TEMP              0 ****  ****    0 ROOT


##########                                Name:    ZINC000471198073
##########                DOCK_Rotatable_Bonds:                  12
##########                         Heavy_Atoms:                  30
##########                    Molecular_Weight:             409.528
##########                DOCK_Rotatable_Bonds:                  12
##########                       Formal_Charge:          -0.0399998
##########                     HBond_Acceptors:                   6
##########                        HBond_Donors:                   3
##########                         Heavy_Atoms:                  30
##########                          Grid_Score:          -32.846020
##########                     Grid_vdw_energy:          -32.129395
##########                      Grid_es_energy:           -0.716627
##########           Internal_energy_repulsive:           25.743649

@<TRIPOS>MOLECULE
ZINC000471198073
 61 62 1 0 0
SMALL
USER_CHARGES


@<TRIPOS>ATOM
      1 C1          4.1388    1.3951   50.3830 C.3     1  ZINC000471198073   -0.1400
      2 C2          3.1613    1.8767   49.3090 C.3     1  ZINC000471198073   -0.1100
      3 C3          2.5954    0.6706   48.5567 C.3     1  ZINC000471198073   -0.1500
      4 C4          2.0344    2.6367   49.9596 C.2     1  ZINC000471198073    0.5200
      5 O5          1.6922    3.7121   49.5153 O.2     1  ZINC000471198073   -0.5200
      6 N6          1.4068    2.1214   51.0353 N.am    1  ZINC000471198073   -0.6700
      7 C7          0.3604    2.8272   51.6395 C.ar    1  ZINC000471198073    0.1600
      8 C8          0.6250    3.9944   52.3445 C.ar    1  ZINC000471198073   -0.1500
      9 C9         -0.4077    4.6924   52.9412 C.ar    1  ZINC000471198073   -0.0800
     10 C10        -1.7060    4.2324   52.8389 C.ar    1  ZINC000471198073   -0.1300
     11 C11        -1.9776    3.0648   52.1353 C.ar    1  ZINC000471198073    0.1500
     12 N12        -3.2911    2.5995   52.0325 N.am    1  ZINC000471198073   -0.6400
     13 C13        -3.8660    2.4667   50.8207 C.2     1  ZINC000471198073    0.5100
     14 O14        -3.2428    2.7511   49.8188 O.2     1  ZINC000471198073   -0.5000
     15 C15        -5.2700    1.9694   50.7108 C.2     1  ZINC000471198073    0.5100
     16 O16        -5.8581    2.0412   49.6516 O.2     1  ZINC000471198073   -0.5100
     17 N17        -5.8840    1.4409   51.7880 N.am    1  ZINC000471198073   -0.7000
     18 C18        -7.2618    0.9547   51.6807 C.3     1  ZINC000471198073    0.1200
     19 C19        -8.0195    1.2804   52.9693 C.3     1  ZINC000471198073   -0.0900
     20 H20        -7.6056    0.6968   53.7916 H       1  ZINC000471198073    0.0800
     21 C21        -7.8785    2.7717   53.2808 C.3     1  ZINC000471198073   -0.0800
     22 C22        -6.9648    2.9533   54.4654 C.ar    1  ZINC000471198073   -0.0800
     23 C23        -7.2706    2.3531   55.6725 C.ar    1  ZINC000471198073   -0.1200
     24 C24        -6.4326    2.5196   56.7591 C.ar    1  ZINC000471198073   -0.1200
     25 C25        -5.2885    3.2861   56.6385 C.ar    1  ZINC000471198073   -0.1200
     26 C26        -4.9822    3.8855   55.4312 C.ar    1  ZINC000471198073   -0.1200
     27 C27        -5.8180    3.7153   54.3433 C.ar    1  ZINC000471198073   -0.1200
     28 C28        -9.4991    0.9340   52.7922 C.3     1  ZINC000471198073   -0.1000
     29 C29        -9.6260   -0.4543   52.1620 C.3     1  ZINC000471198073   -0.1600
     30 C30       -10.1912    0.9398   54.1568 C.3     1  ZINC000471198073   -0.1700
     31 C31        -0.9432    2.3648   51.5301 C.ar    1  ZINC000471198073   -0.1400
     32 H32         4.9538    0.8454   49.9124 H       1  ZINC000471198073    0.0700
     33 H33         4.5419    2.2544   50.9190 H       1  ZINC000471198073    0.0600
     34 H34         3.6168    0.7426   51.0829 H       1  ZINC000471198073    0.0600
     35 H35         3.6832    2.5292   48.6091 H       1  ZINC000471198073    0.1000
     36 H36         2.0735    0.0179   49.2565 H       1  ZINC000471198073    0.0600
     37 H37         1.8990    1.0136   47.7915 H       1  ZINC000471198073    0.0600
     38 H38         3.4105    0.1208   48.0860 H       1  ZINC000471198073    0.0700
     39 H39         1.6805    1.2615   51.3907 H       1  ZINC000471198073    0.4100
     40 H40         1.6391    4.3568   52.4267 H       1  ZINC000471198073    0.1300
     41 H41        -0.1991    5.5995   53.4890 H       1  ZINC000471198073    0.1300
     42 H42        -2.5109    4.7801   53.3064 H       1  ZINC000471198073    0.1400
     43 H43        -3.7892    2.3721   52.8332 H       1  ZINC000471198073    0.4200
     44 H44        -5.4136    1.3825   52.6343 H       1  ZINC000471198073    0.4200
     45 H45        -7.7536    1.4398   50.8375 H       1  ZINC000471198073    0.0700
     46 H46        -7.2553   -0.1242   51.5258 H       1  ZINC000471198073    0.0800
     47 H47        -7.4586    3.2854   52.4159 H       1  ZINC000471198073    0.0800
     48 H48        -8.8589    3.1891   53.5107 H       1  ZINC000471198073    0.0800
     49 H49        -8.1646    1.7544   55.7668 H       1  ZINC000471198073    0.1200
     50 H50        -6.6719    2.0514   57.7025 H       1  ZINC000471198073    0.1200
     51 H51        -4.6341    3.4168   57.4876 H       1  ZINC000471198073    0.1200
     52 H52        -4.0884    4.4844   55.3370 H       1  ZINC000471198073    0.1200
     53 H53        -5.5787    4.1837   53.4000 H       1  ZINC000471198073    0.1200
     54 H54        -9.9700    1.6722   52.1430 H       1  ZINC000471198073    0.0800
     55 H55        -9.2437   -1.2042   52.8546 H       1  ZINC000471198073    0.0600
     56 H56       -10.6742   -0.6606   51.9454 H       1  ZINC000471198073    0.0600
     57 H57        -9.0506   -0.4874   51.2369 H       1  ZINC000471198073    0.0600
     58 H58        -9.9930    1.8858   54.6606 H       1  ZINC000471198073    0.0600
     59 H59       -11.2658    0.8192   54.0197 H       1  ZINC000471198073    0.0600
     60 H60        -9.8077    0.1184   54.7621 H       1  ZINC000471198073    0.0700
     61 H61        -1.1515    1.4573   50.9829 H       1  ZINC000471198073    0.1400
@<TRIPOS>BOND
     1     1     2    1
     2     1    32    1
     3     1    33    1
     4     1    34    1
     5     2     3    1
     6     2     4    1
     7     2    35    1
     8     3    36    1
     9     3    37    1
    10     3    38    1
    11     4     5    2
    12     4     6   am
    13     6     7    1
    14     6    39    1
    15     7    31   ar
    16     7     8   ar
    17     8     9   ar
    18     8    40    1
    19     9    10   ar
    20     9    41    1
    21    10    11   ar
    22    10    42    1
    23    11    12    1
    24    11    31   ar
    25    12    13   am
    26    12    43    1
    27    13    14    2
    28    13    15    1
    29    15    16    2
    30    15    17   am
    31    17    18    1
    32    17    44    1
    33    18    19    1
    34    18    45    1
    35    18    46    1
    36    19    20    1
    37    19    21    1
    38    19    28    1
    39    21    22    1
    40    21    47    1
    41    21    48    1
    42    22    27   ar
    43    22    23   ar
    44    23    24   ar
    45    23    49    1
    46    24    25   ar
    47    24    50    1
    48    25    26   ar
    49    25    51    1
    50    26    27   ar
    51    26    52    1
    52    27    53    1
    53    28    29    1
    54    28    30    1
    55    28    54    1
    56    29    55    1
    57    29    56    1
    58    29    57    1
    59    30    58    1
    60    30    59    1
    61    30    60    1
    62    31    61    1
@<TRIPOS>SUBSTRUCTURE
     1 ZINC000471198073        1 TEMP              0 ****  ****    0 ROOT


##########                                Name:    ZINC001119787528
##########                DOCK_Rotatable_Bonds:                   6
##########                         Heavy_Atoms:                  27
##########                    Molecular_Weight:             362.434
##########                DOCK_Rotatable_Bonds:                   6
##########                       Formal_Charge:          -0.0199998
##########                     HBond_Acceptors:                   7
##########                        HBond_Donors:                   1
##########                         Heavy_Atoms:                  27
##########                          Grid_Score:          -32.775360
##########                     Grid_vdw_energy:          -32.033928
##########                      Grid_es_energy:           -0.741432
##########           Internal_energy_repulsive:           11.060649

@<TRIPOS>MOLECULE
ZINC001119787528
 49 52 1 0 0
SMALL
USER_CHARGES


@<TRIPOS>ATOM
      1 C1         -7.6166    2.9206   50.5267 C.3     1  ZINC001119787528   -0.1700
      2 C2         -8.3373    2.6495   51.8488 C.3     1  ZINC001119787528    0.1000
      3 N3         -8.6806    1.2278   51.9352 N.pl3   1  ZINC001119787528   -0.4500
      4 C4         -7.8499    0.1846   51.7070 C.2     1  ZINC001119787528    0.1800
      5 N5         -8.5148   -0.9281   51.8795 N.2     1  ZINC001119787528   -0.4800
      6 C6         -9.7726   -0.6372   52.2183 C.2     1  ZINC001119787528   -0.0200
      7 C7         -9.8948    0.7068   52.2662 C.2     1  ZINC001119787528   -0.0100
      8 C8        -11.1594    1.4438   52.6213 C.3     1  ZINC001119787528   -0.0600
      9 C9        -12.3482    0.4850   52.4752 C.3     1  ZINC001119787528    0.1400
     10 N10       -12.0050   -0.8046   53.0928 N.am    1  ZINC001119787528   -0.6200
     11 C11       -12.6789   -1.2554   54.1695 C.2     1  ZINC001119787528    0.7200
     12 O12       -13.5829   -0.5936   54.6415 O.2     1  ZINC001119787528   -0.5600
     13 N13       -12.3507   -2.4398   54.7226 N.am    1  ZINC001119787528   -0.6600
     14 C14       -13.0457   -2.9046   55.8331 C.ar    1  ZINC001119787528    0.4200
     15 C15       -13.9070   -3.9967   55.7238 C.ar    1  ZINC001119787528   -0.2500
     16 C16       -14.5748   -4.4213   56.8568 C.ar    1  ZINC001119787528    0.1600
     17 N17       -14.3772   -3.7828   58.0008 N.ar    1  ZINC001119787528   -0.5300
     18 C18       -13.5564   -2.7540   58.0709 C.ar    1  ZINC001119787528    0.3500
     19 C19       -13.3634   -2.0596   59.3943 C.3     1  ZINC001119787528   -0.0100
     20 C20       -11.9039   -1.7344   59.5827 C.ar    1  ZINC001119787528   -0.0800
     21 C21       -10.9415   -2.6836   59.2936 C.ar    1  ZINC001119787528   -0.1000
     22 C22        -9.6028   -2.3854   59.4664 C.ar    1  ZINC001119787528   -0.1200
     23 C23        -9.2265   -1.1379   59.9279 C.ar    1  ZINC001119787528   -0.1200
     24 C24       -10.1890   -0.1883   60.2160 C.ar    1  ZINC001119787528   -0.1200
     25 C25       -11.5275   -0.4851   60.0392 C.ar    1  ZINC001119787528   -0.1000
     26 N26       -12.8961   -2.3192   57.0171 N.ar    1  ZINC001119787528   -0.5500
     27 C27       -10.9051   -1.5929   52.5104 C.3     1  ZINC001119787528    0.2000
     28 H28        -7.3612    3.9783   50.4623 H       1  ZINC001119787528    0.0800
     29 H29        -6.7059    2.3233   50.4801 H       1  ZINC001119787528    0.0600
     30 H30        -8.2693    2.6532   49.6956 H       1  ZINC001119787528    0.0600
     31 H31        -7.6846    2.9168   52.6799 H       1  ZINC001119787528    0.0900
     32 H32        -9.2480    3.2467   51.8952 H       1  ZINC001119787528    0.1000
     33 H33        -6.8092    0.2586   51.4279 H       1  ZINC001119787528    0.2100
     34 H34       -11.0995    1.7973   53.6506 H       1  ZINC001119787528    0.0800
     35 H35       -11.2892    2.2917   51.9487 H       1  ZINC001119787528    0.0900
     36 H36       -13.2204    0.9073   52.9742 H       1  ZINC001119787528    0.1100
     37 H37       -12.5683    0.3358   51.4182 H       1  ZINC001119787528    0.0800
     38 H38       -11.6295   -2.9677   54.3459 H       1  ZINC001119787528    0.4200
     39 H39       -14.0486   -4.4974   54.7774 H       1  ZINC001119787528    0.1800
     40 H40       -15.2499   -5.2632   56.8102 H       1  ZINC001119787528    0.1700
     41 H41       -13.9458   -1.1383   59.4096 H       1  ZINC001119787528    0.1000
     42 H42       -13.6968   -2.7136   60.1999 H       1  ZINC001119787528    0.1000
     43 H43       -11.2355   -3.6583   58.9332 H       1  ZINC001119787528    0.1300
     44 H44        -8.8508   -3.1272   59.2413 H       1  ZINC001119787528    0.1200
     45 H45        -8.1807   -0.9051   60.0636 H       1  ZINC001119787528    0.1200
     46 H46        -9.8950    0.7862   60.5769 H       1  ZINC001119787528    0.1200
     47 H47       -12.2793    0.2567   60.2643 H       1  ZINC001119787528    0.1200
     48 H48       -11.2355   -2.0625   51.5838 H       1  ZINC001119787528    0.0900
     49 H49       -10.5799   -2.3553   53.2181 H       1  ZINC001119787528    0.0900
@<TRIPOS>BOND
     1     1     2    1
     2     1    28    1
     3     1    29    1
     4     1    30    1
     5     2     3    1
     6     2    31    1
     7     2    32    1
     8     3     7    1
     9     3     4    1
    10     4     5    2
    11     4    33    1
    12     5     6    1
    13     6    27    1
    14     6     7    2
    15     7     8    1
    16     8     9    1
    17     8    34    1
    18     8    35    1
    19     9    10    1
    20     9    36    1
    21     9    37    1
    22    10    11   am
    23    10    27    1
    24    11    12    2
    25    11    13   am
    26    13    14    1
    27    13    38    1
    28    14    26   ar
    29    14    15   ar
    30    15    16   ar
    31    15    39    1
    32    16    17   ar
    33    16    40    1
    34    17    18   ar
    35    18    19    1
    36    18    26   ar
    37    19    20    1
    38    19    41    1
    39    19    42    1
    40    20    25   ar
    41    20    21   ar
    42    21    22   ar
    43    21    43    1
    44    22    23   ar
    45    22    44    1
    46    23    24   ar
    47    23    45    1
    48    24    25   ar
    49    24    46    1
    50    25    47    1
    51    27    48    1
    52    27    49    1
@<TRIPOS>SUBSTRUCTURE
     1 ZINC001119787528        1 TEMP              0 ****  ****    0 ROOT


##########                                Name:    ZINC000746432885
##########                DOCK_Rotatable_Bonds:                  11
##########                         Heavy_Atoms:                  31
##########                    Molecular_Weight:              419.44
##########                DOCK_Rotatable_Bonds:                  11
##########                       Formal_Charge:           0.0199995
##########                     HBond_Acceptors:                   9
##########                        HBond_Donors:                   2
##########                         Heavy_Atoms:                  31
##########                          Grid_Score:          -32.730377
##########                     Grid_vdw_energy:          -31.595404
##########                      Grid_es_energy:           -1.134974
##########           Internal_energy_repulsive:           10.603120

@<TRIPOS>MOLECULE
ZINC000746432885
 52 54 1 0 0
SMALL
USER_CHARGES


@<TRIPOS>ATOM
      1 C1        -14.6810   -0.4462   53.0486 C.3     1  ZINC000746432885    0.0300
      2 O2        -14.3084    0.5552   53.9976 O.3     1  ZINC000746432885   -0.3200
      3 C3        -13.4473    1.5172   53.5734 C.ar    1  ZINC000746432885    0.1300
      4 C4        -13.9000    2.5449   52.7589 C.ar    1  ZINC000746432885   -0.2000
      5 C5        -13.0227    3.5215   52.3289 C.ar    1  ZINC000746432885   -0.0800
      6 C6        -11.6942    3.4751   52.7093 C.ar    1  ZINC000746432885   -0.1400
      7 C7        -11.2405    2.4518   53.5210 C.ar    1  ZINC000746432885   -0.0600
      8 C8         -9.7920    2.4044   53.9341 C.3     1  ZINC000746432885    0.2300
      9 N9         -9.6928    1.9149   55.3114 N.am    1  ZINC000746432885   -0.6900
     10 C10        -8.5404    2.0571   55.9958 C.2     1  ZINC000746432885    0.5200
     11 O11        -7.5853    2.5919   55.4715 O.2     1  ZINC000746432885   -0.5100
     12 C12        -8.4386    1.5566   57.3989 C.2     1  ZINC000746432885    0.5100
     13 O13        -7.6453    2.0607   58.1672 O.2     1  ZINC000746432885   -0.5100
     14 N14        -9.2275    0.5451   57.8125 N.am    1  ZINC000746432885   -0.6100
     15 C15        -9.1331    0.0753   59.1330 C.2     1  ZINC000746432885    0.0000
     16 C16        -9.0859    0.8412   60.2540 C.2     1  ZINC000746432885    0.0400
     17 N17        -8.9974    0.0085   61.3159 N.pl3   1  ZINC000746432885   -0.3800
     18 C18        -8.9231    0.4118   62.7223 C.3     1  ZINC000746432885    0.2500
     19 C19       -10.2839    0.5953   63.2527 C.1     1  ZINC000746432885    0.1900
     20 N20       -11.3340    0.7370   63.6623 N.1     1  ZINC000746432885   -0.3900
     21 N21        -8.9898   -1.3070   60.8352 N.2     1  ZINC000746432885   -0.2800
     22 C22        -9.0765   -1.2695   59.5304 C.2     1  ZINC000746432885    0.0700
     23 C23        -9.0379    1.4772   53.0160 C.ar    1  ZINC000746432885   -0.0500
     24 C24        -9.3177    0.1232   53.0197 C.ar    1  ZINC000746432885   -0.1500
     25 C25        -8.6279   -0.7299   52.1783 C.ar    1  ZINC000746432885   -0.0700
     26 C26        -7.6570   -0.2311   51.3315 C.ar    1  ZINC000746432885   -0.2000
     27 C27        -7.3744    1.1270   51.3259 C.ar    1  ZINC000746432885    0.1300
     28 O28        -6.4198    1.6202   50.4938 O.3     1  ZINC000746432885   -0.3200
     29 C29        -5.1598    1.9555   51.0787 C.3     1  ZINC000746432885    0.0300
     30 C30        -8.0716    1.9817   52.1674 C.ar    1  ZINC000746432885   -0.1300
     31 C31       -12.1152    1.4762   53.9586 C.ar    1  ZINC000746432885   -0.1300
     32 H32       -13.7906   -0.9777   52.7128 H       1  ZINC000746432885    0.0600
     33 H33       -15.3701   -1.1503   53.5151 H       1  ZINC000746432885    0.1000
     34 H34       -15.1664    0.0255   52.1943 H       1  ZINC000746432885    0.0600
     35 H35       -14.9374    2.5813   52.4609 H       1  ZINC000746432885    0.1300
     36 H36       -13.3746    4.3219   51.6949 H       1  ZINC000746432885    0.1300
     37 H37       -11.0096    4.2390   52.3716 H       1  ZINC000746432885    0.1200
     38 H38        -9.3635    3.4047   53.8723 H       1  ZINC000746432885    0.1200
     39 H39       -10.4564    1.4885   55.7309 H       1  ZINC000746432885    0.4200
     40 H40        -9.8606    0.1415   57.1982 H       1  ZINC000746432885    0.4200
     41 H41        -9.1138    1.9203   60.2905 H       1  ZINC000746432885    0.1900
     42 H42        -8.4110   -0.3612   63.2953 H       1  ZINC000746432885    0.1300
     43 H43        -8.3723    1.3489   62.8030 H       1  ZINC000746432885    0.1500
     44 H44        -9.0947   -2.1256   58.8722 H       1  ZINC000746432885    0.2100
     45 H45       -10.0761   -0.2688   53.6813 H       1  ZINC000746432885    0.1200
     46 H46        -8.8481   -1.7873   52.1833 H       1  ZINC000746432885    0.1300
     47 H47        -7.1183   -0.8981   50.6747 H       1  ZINC000746432885    0.1300
     48 H48        -4.4909    2.3364   50.3068 H       1  ZINC000746432885    0.1000
     49 H49        -5.3055    2.7192   51.8425 H       1  ZINC000746432885    0.0600
     50 H50        -4.7219    1.0665   51.5326 H       1  ZINC000746432885    0.0600
     51 H51        -7.8535    3.0394   52.1649 H       1  ZINC000746432885    0.1400
     52 H52       -11.7604    0.6771   54.5926 H       1  ZINC000746432885    0.1300
@<TRIPOS>BOND
     1     1     2    1
     2     1    32    1
     3     1    33    1
     4     1    34    1
     5     2     3    1
     6     3    31   ar
     7     3     4   ar
     8     4     5   ar
     9     4    35    1
    10     5     6   ar
    11     5    36    1
    12     6     7   ar
    13     6    37    1
    14     7     8    1
    15     7    31   ar
    16     8     9    1
    17     8    23    1
    18     8    38    1
    19     9    10   am
    20     9    39    1
    21    10    11    2
    22    10    12    1
    23    12    13    2
    24    12    14   am
    25    14    15    1
    26    14    40    1
    27    15    22    1
    28    15    16    2
    29    16    17    1
    30    16    41    1
    31    17    18    1
    32    17    21    1
    33    18    19    1
    34    18    42    1
    35    18    43    1
    36    19    20    3
    37    21    22    2
    38    22    44    1
    39    23    30   ar
    40    23    24   ar
    41    24    25   ar
    42    24    45    1
    43    25    26   ar
    44    25    46    1
    45    26    27   ar
    46    26    47    1
    47    27    28    1
    48    27    30   ar
    49    28    29    1
    50    29    48    1
    51    29    49    1
    52    29    50    1
    53    30    51    1
    54    31    52    1
@<TRIPOS>SUBSTRUCTURE
     1 ZINC000746432885        1 TEMP              0 ****  ****    0 ROOT


##########                                Name:    ZINC000555499135
##########                DOCK_Rotatable_Bonds:                   8
##########                         Heavy_Atoms:                  26
##########                    Molecular_Weight:             377.554
##########                DOCK_Rotatable_Bonds:                   8
##########                       Formal_Charge:           0.0399999
##########                     HBond_Acceptors:                   7
##########                        HBond_Donors:                   0
##########                         Heavy_Atoms:                  26
##########                          Grid_Score:          -32.729469
##########                     Grid_vdw_energy:          -32.022285
##########                      Grid_es_energy:           -0.707184
##########           Internal_energy_repulsive:           10.904857

@<TRIPOS>MOLECULE
ZINC000555499135
 57 59 1 0 0
SMALL
USER_CHARGES


@<TRIPOS>ATOM
      1 C1         -8.1871    0.0900   66.7098 C.3     1  ZINC000555499135   -0.1500
      2 C2         -9.0973    1.0642   65.9593 C.3     1  ZINC000555499135   -0.0500
      3 C3         -9.3611    0.5379   64.5720 C.2     1  ZINC000555499135   -0.2100
      4 C4        -10.4496    0.7764   63.8344 C.2     1  ZINC000555499135    0.0300
      5 N5        -10.4437    0.2002   62.6493 N.2     1  ZINC000555499135   -0.4500
      6 C6         -9.4106   -0.5109   62.3460 C.2     1  ZINC000555499135    0.0400
      7 C7         -9.2206   -1.2443   61.0433 C.3     1  ZINC000555499135    0.1500
      8 N8         -9.8808   -0.5010   59.9620 N.3     1  ZINC000555499135   -0.4500
      9 C9         -8.9600    0.4658   59.3492 C.3     1  ZINC000555499135    0.0100
     10 C10       -10.3996   -1.3645   59.0103 C.2     1  ZINC000555499135    0.3500
     11 N11        -9.9144   -2.5362   58.6733 N.2     1  ZINC000555499135   -0.3100
     12 N12       -10.6466   -3.0653   57.7590 N.2     1  ZINC000555499135   -0.2900
     13 C13       -11.6341   -2.2692   57.4609 C.2     1  ZINC000555499135    0.2100
     14 C14       -12.7117   -2.5265   56.4394 C.3     1  ZINC000555499135   -0.0300
     15 C15       -12.2679   -1.9795   55.0812 C.3     1  ZINC000555499135   -0.0900
     16 C16       -11.5202   -3.0701   54.3117 C.3     1  ZINC000555499135   -0.1500
     17 C17       -13.4967   -1.5421   54.2813 C.3     1  ZINC000555499135   -0.1500
     18 N18       -11.5148   -1.1597   58.2512 N.pl3   1  ZINC000555499135   -0.4600
     19 C19       -12.3964    0.0102   58.2722 C.3     1  ZINC000555499135    0.1100
     20 C20       -13.6205   -0.2893   59.1397 C.3     1  ZINC000555499135    0.0700
     21 H21       -14.5247   -0.1902   58.5390 H       1  ZINC000555499135    0.0700
     22 C22       -13.6727    0.6991   60.3076 C.3     1  ZINC000555499135   -0.1500
     23 C23       -14.8661    0.3555   61.2043 C.3     1  ZINC000555499135   -0.1200
     24 C24       -14.7348   -1.0958   61.6764 C.3     1  ZINC000555499135   -0.1600
     25 C25       -14.6415   -2.0149   60.4555 C.3     1  ZINC000555499135    0.0600
     26 O26       -13.5299   -1.6216   59.6483 O.3     1  ZINC000555499135   -0.3700
     27 S27        -8.2852   -0.4943   63.6330 S.3     1  ZINC000555499135    0.1200
     28 H28        -8.6734   -0.8832   66.7768 H       1  ZINC000555499135    0.0600
     29 H29        -7.2432   -0.0114   66.1742 H       1  ZINC000555499135    0.0600
     30 H30        -7.9963    0.4707   67.7132 H       1  ZINC000555499135    0.0700
     31 H31       -10.0411    1.1657   66.4949 H       1  ZINC000555499135    0.0900
     32 H32        -8.6111    2.0375   65.8923 H       1  ZINC000555499135    0.0800
     33 H33       -11.2673    1.3908   64.1812 H       1  ZINC000555499135    0.1800
     34 H34        -8.1558   -1.3311   60.8272 H       1  ZINC000555499135    0.0800
     35 H35        -9.6581   -2.2398   61.1197 H       1  ZINC000555499135    0.1200
     36 H36        -8.1628   -0.0689   58.8326 H       1  ZINC000555499135    0.0500
     37 H37        -9.5044    1.0843   58.6357 H       1  ZINC000555499135    0.0800
     38 H38        -8.5294    1.0993   60.1248 H       1  ZINC000555499135    0.0900
     39 H39       -12.8876   -3.5992   56.3592 H       1  ZINC000555499135    0.1000
     40 H40       -13.6313   -2.0296   56.7484 H       1  ZINC000555499135    0.1000
     41 H41       -11.6091   -1.1242   55.2317 H       1  ZINC000555499135    0.0800
     42 H42       -10.6675   -3.4099   54.8995 H       1  ZINC000555499135    0.0500
     43 H43       -12.1911   -3.9089   54.1263 H       1  ZINC000555499135    0.0600
     44 H44       -11.1693   -2.6685   53.3610 H       1  ZINC000555499135    0.0600
     45 H45       -14.0294   -0.7650   54.8296 H       1  ZINC000555499135    0.0600
     46 H46       -13.1805   -1.1523   53.3137 H       1  ZINC000555499135    0.0600
     47 H47       -14.1555   -2.3973   54.1309 H       1  ZINC000555499135    0.0600
     48 H48       -11.8582    0.8632   58.6854 H       1  ZINC000555499135    0.1100
     49 H49       -12.7183    0.2408   57.2567 H       1  ZINC000555499135    0.1200
     50 H50       -12.7510    0.6293   60.8853 H       1  ZINC000555499135    0.0800
     51 H51       -13.7864    1.7125   59.9225 H       1  ZINC000555499135    0.0800
     52 H52       -14.8767    1.0203   62.0680 H       1  ZINC000555499135    0.0700
     53 H53       -15.7916    0.4732   60.6406 H       1  ZINC000555499135    0.0600
     54 H54       -13.8345   -1.2019   62.2817 H       1  ZINC000555499135    0.0700
     55 H55       -15.6080   -1.3663   62.2700 H       1  ZINC000555499135    0.0800
     56 H56       -14.5049   -3.0447   60.7855 H       1  ZINC000555499135    0.1000
     57 H57       -15.5591   -1.9385   59.8722 H       1  ZINC000555499135    0.0500
@<TRIPOS>BOND
     1     1     2    1
     2     1    28    1
     3     1    29    1
     4     1    30    1
     5     2     3    1
     6     2    31    1
     7     2    32    1
     8     3    27    1
     9     3     4    2
    10     4     5    1
    11     4    33    1
    12     5     6    2
    13     6     7    1
    14     6    27    1
    15     7     8    1
    16     7    34    1
    17     7    35    1
    18     8     9    1
    19     8    10    1
    20     9    36    1
    21     9    37    1
    22     9    38    1
    23    10    18    1
    24    10    11    2
    25    11    12    1
    26    12    13    2
    27    13    14    1
    28    13    18    1
    29    14    15    1
    30    14    39    1
    31    14    40    1
    32    15    16    1
    33    15    17    1
    34    15    41    1
    35    16    42    1
    36    16    43    1
    37    16    44    1
    38    17    45    1
    39    17    46    1
    40    17    47    1
    41    18    19    1
    42    19    20    1
    43    19    48    1
    44    19    49    1
    45    20    21    1
    46    20    26    1
    47    20    22    1
    48    22    23    1
    49    22    50    1
    50    22    51    1
    51    23    24    1
    52    23    52    1
    53    23    53    1
    54    24    25    1
    55    24    54    1
    56    24    55    1
    57    25    26    1
    58    25    56    1
    59    25    57    1
@<TRIPOS>SUBSTRUCTURE
     1 ZINC000555499135        1 TEMP              0 ****  ****    0 ROOT


##########                                Name:    ZINC000375302598
##########                DOCK_Rotatable_Bonds:                   8
##########                         Heavy_Atoms:                  27
##########                    Molecular_Weight:             368.479
##########                DOCK_Rotatable_Bonds:                   8
##########                       Formal_Charge:               -0.02
##########                     HBond_Acceptors:                   6
##########                        HBond_Donors:                   1
##########                         Heavy_Atoms:                  27
##########                          Grid_Score:          -32.720253
##########                     Grid_vdw_energy:          -32.286530
##########                      Grid_es_energy:           -0.433724
##########           Internal_energy_repulsive:            8.777125

@<TRIPOS>MOLECULE
ZINC000375302598
 55 58 1 0 0
SMALL
USER_CHARGES


@<TRIPOS>ATOM
      1 C1        -11.7538   -2.8864   54.3216 C.3     1  ZINC000375302598   -0.1500
      2 C2        -11.8800   -2.0344   53.0569 C.3     1  ZINC000375302598   -0.0300
      3 C3        -10.6456   -1.1846   52.8985 C.2     1  ZINC000375302598    0.1800
      4 N4        -10.3817   -0.0656   53.5291 N.2     1  ZINC000375302598   -0.4700
      5 C5         -9.1813    0.3332   53.0719 C.2     1  ZINC000375302598    0.1800
      6 C6         -8.4343    1.5731   53.4910 C.3     1  ZINC000375302598    0.1500
      7 N7         -7.8743    2.2322   52.3035 N.3     1  ZINC000375302598   -0.5300
      8 C8         -8.5115    3.5354   52.0753 C.3     1  ZINC000375302598    0.0500
      9 C9         -8.0103    4.1255   50.7553 C.3     1  ZINC000375302598   -0.1100
     10 C10        -6.4887    4.2845   50.8180 C.3     1  ZINC000375302598   -0.1300
     11 C11        -5.8524    2.9216   51.1047 C.3     1  ZINC000375302598    0.1500
     12 H12        -6.0810    2.2346   50.2899 H       1  ZINC000375302598    0.1000
     13 N13        -4.4002    3.0748   51.2223 N.am    1  ZINC000375302598   -0.7300
     14 C14        -3.6085    2.8306   50.1593 C.2     1  ZINC000375302598    0.5200
     15 O15        -4.0982    2.4826   49.1057 O.2     1  ZINC000375302598   -0.5300
     16 C16        -2.1148    2.9900   50.2798 C.3     1  ZINC000375302598   -0.1100
     17 C17        -1.7547    3.3459   51.7236 C.3     1  ZINC000375302598   -0.1200
     18 H18        -2.0946    2.6393   52.4807 H       1  ZINC000375302598    0.1200
     19 C19        -1.7309    4.8285   52.1007 C.3     1  ZINC000375302598   -0.1700
     20 C20        -0.4189    4.0517   51.9650 C.3     1  ZINC000375302598   -0.1100
     21 H21         0.2033    4.2628   51.0953 H       1  ZINC000375302598    0.1100
     22 C22         0.3263    3.7178   53.2315 C.ar    1  ZINC000375302598   -0.0500
     23 C23         1.7062    3.6349   53.2201 C.ar    1  ZINC000375302598   -0.1200
     24 C24         2.3898    3.3286   54.3819 C.ar    1  ZINC000375302598   -0.1200
     25 C25         1.6937    3.1056   55.5552 C.ar    1  ZINC000375302598   -0.1300
     26 C26         0.3139    3.1894   55.5668 C.ar    1  ZINC000375302598   -0.1200
     27 C27        -0.3695    3.4999   54.4059 C.ar    1  ZINC000375302598   -0.1100
     28 C28        -6.4162    2.3663   52.4146 C.3     1  ZINC000375302598    0.0500
     29 N29        -8.7839   -0.5472   52.2028 N.2     1  ZINC000375302598   -0.3800
     30 O30        -9.6081   -1.4304   52.0927 O.3     1  ZINC000375302598    0.0800
     31 H31       -11.6473   -2.2352   55.1891 H       1  ZINC000375302598    0.0600
     32 H32       -12.6466   -3.5011   54.4360 H       1  ZINC000375302598    0.0800
     33 H33       -10.8777   -3.5297   54.2404 H       1  ZINC000375302598    0.0600
     34 H34       -11.9864   -2.6856   52.1893 H       1  ZINC000375302598    0.1100
     35 H35       -12.7561   -1.3911   53.1381 H       1  ZINC000375302598    0.1000
     36 H36        -9.1174    2.2553   53.9970 H       1  ZINC000375302598    0.0700
     37 H37        -7.6263    1.2987   54.1692 H       1  ZINC000375302598    0.1100
     38 H38        -9.5931    3.4075   52.0286 H       1  ZINC000375302598    0.0800
     39 H39        -8.2608    4.2105   52.8934 H       1  ZINC000375302598    0.0400
     40 H40        -8.2729    3.4574   49.9350 H       1  ZINC000375302598    0.0700
     41 H41        -8.4717    5.0998   50.5937 H       1  ZINC000375302598    0.0700
     42 H42        -6.1225    4.6641   49.8641 H       1  ZINC000375302598    0.0700
     43 H43        -6.2279    4.9828   51.6132 H       1  ZINC000375302598    0.0600
     44 H44        -4.0085    3.3521   52.0653 H       1  ZINC000375302598    0.4000
     45 H45        -1.6263    2.0555   50.0032 H       1  ZINC000375302598    0.1000
     46 H46        -1.7794    3.7859   49.6149 H       1  ZINC000375302598    0.1000
     47 H47        -1.9718    5.5502   51.3204 H       1  ZINC000375302598    0.1000
     48 H48        -2.0548    5.0973   53.1062 H       1  ZINC000375302598    0.1000
     49 H49         2.2501    3.8092   52.3035 H       1  ZINC000375302598    0.1200
     50 H50         3.4678    3.2632   54.3728 H       1  ZINC000375302598    0.1200
     51 H51         2.2278    2.8656   56.4627 H       1  ZINC000375302598    0.1200
     52 H52        -0.2299    3.0148   56.4833 H       1  ZINC000375302598    0.1200
     53 H53        -1.4474    3.5653   54.4150 H       1  ZINC000375302598    0.1200
     54 H54        -6.1752    3.0469   53.2311 H       1  ZINC000375302598    0.0400
     55 H55        -5.9758    1.3895   52.6144 H       1  ZINC000375302598    0.0900
@<TRIPOS>BOND
     1     1     2    1
     2     1    31    1
     3     1    32    1
     4     1    33    1
     5     2     3    1
     6     2    34    1
     7     2    35    1
     8     3    30    1
     9     3     4    2
    10     4     5    1
    11     5     6    1
    12     5    29    2
    13     6     7    1
    14     6    36    1
    15     6    37    1
    16     7    28    1
    17     7     8    1
    18     8     9    1
    19     8    38    1
    20     8    39    1
    21     9    10    1
    22     9    40    1
    23     9    41    1
    24    10    11    1
    25    10    42    1
    26    10    43    1
    27    11    12    1
    28    11    13    1
    29    11    28    1
    30    13    14   am
    31    13    44    1
    32    14    15    2
    33    14    16    1
    34    16    17    1
    35    16    45    1
    36    16    46    1
    37    17    18    1
    38    17    20    1
    39    17    19    1
    40    19    20    1
    41    19    47    1
    42    19    48    1
    43    20    21    1
    44    20    22    1
    45    22    27   ar
    46    22    23   ar
    47    23    24   ar
    48    23    49    1
    49    24    25   ar
    50    24    50    1
    51    25    26   ar
    52    25    51    1
    53    26    27   ar
    54    26    52    1
    55    27    53    1
    56    28    54    1
    57    28    55    1
    58    29    30    1
@<TRIPOS>SUBSTRUCTURE
     1 ZINC000375302598        1 TEMP              0 ****  ****    0 ROOT


##########                                Name:    ZINC000004598904
##########                DOCK_Rotatable_Bonds:                  13
##########                         Heavy_Atoms:                  30
##########                    Molecular_Weight:             412.442
##########                DOCK_Rotatable_Bonds:                  13
##########                       Formal_Charge:          -0.0300005
##########                     HBond_Acceptors:                   8
##########                        HBond_Donors:                   2
##########                         Heavy_Atoms:                  30
##########                          Grid_Score:          -32.715076
##########                     Grid_vdw_energy:          -33.946621
##########                      Grid_es_energy:            1.231543
##########           Internal_energy_repulsive:           11.323098

@<TRIPOS>MOLECULE
ZINC000004598904
 54 55 1 0 0
SMALL
USER_CHARGES


@<TRIPOS>ATOM
      1 C1         -7.5866    1.3659   65.6185 C.3     1  ZINC000004598904   -0.1500
      2 C2         -8.8550    0.5103   65.6152 C.3     1  ZINC000004598904    0.0600
      3 O3         -9.5303    0.6509   64.3377 O.3     1  ZINC000004598904   -0.3500
      4 C4         -8.9945   -0.0014   63.2874 C.2     1  ZINC000004598904    0.5100
      5 O5         -8.1133   -0.8189   63.4653 O.2     1  ZINC000004598904   -0.5100
      6 C6         -9.4775    0.2768   61.9221 C.ar    1  ZINC000004598904   -0.1500
      7 C7        -10.5120    1.1950   61.7184 C.ar    1  ZINC000004598904   -0.0400
      8 C8        -10.9603    1.4521   60.4427 C.ar    1  ZINC000004598904   -0.1400
      9 C9        -10.3852    0.7996   59.3565 C.ar    1  ZINC000004598904    0.1800
     10 N10       -10.8416    1.0630   58.0658 N.am    1  ZINC000004598904   -0.6700
     11 C11       -10.2505    2.0207   57.3244 C.2     1  ZINC000004598904    0.5200
     12 O12        -9.3215    2.6534   57.7799 O.2     1  ZINC000004598904   -0.5100
     13 C13       -10.7439    2.3054   55.9291 C.3     1  ZINC000004598904   -0.1300
     14 C14       -10.3640    1.1449   55.0072 C.3     1  ZINC000004598904   -0.1300
     15 C15        -9.1116    1.4969   54.2465 C.2     1  ZINC000004598904    0.5200
     16 O16        -8.1175    1.8495   54.8451 O.2     1  ZINC000004598904   -0.5100
     17 N17        -9.0961    1.4198   52.9011 N.am    1  ZINC000004598904   -0.6700
     18 C18        -7.9375    1.7454   52.1974 C.ar    1  ZINC000004598904    0.1800
     19 C19        -7.8196    2.9937   51.5940 C.ar    1  ZINC000004598904   -0.1400
     20 C20        -6.6771    3.3186   50.8985 C.ar    1  ZINC000004598904   -0.0300
     21 C21        -5.6342    2.3928   50.7991 C.ar    1  ZINC000004598904   -0.1500
     22 C22        -4.4085    2.7374   50.0552 C.2     1  ZINC000004598904    0.5100
     23 O23        -4.2863    2.3978   48.8951 O.2     1  ZINC000004598904   -0.5100
     24 O24        -3.4239    3.4288   50.6621 O.3     1  ZINC000004598904   -0.3600
     25 C25        -2.9889    2.9524   51.9629 C.3     1  ZINC000004598904    0.0600
     26 C26        -3.1566    4.0676   52.9968 C.3     1  ZINC000004598904   -0.1500
     27 C27        -5.7559    1.1397   51.4070 C.ar    1  ZINC000004598904   -0.0400
     28 C28        -6.8993    0.8234   52.1050 C.ar    1  ZINC000004598904   -0.1600
     29 C29        -9.3555   -0.1148   59.5555 C.ar    1  ZINC000004598904   -0.1600
     30 C30        -8.8982   -0.3726   60.8280 C.ar    1  ZINC000004598904   -0.0300
     31 H31        -7.8530    2.4112   65.4615 H       1  ZINC000004598904    0.0700
     32 H32        -7.0795    1.2603   66.5777 H       1  ZINC000004598904    0.0800
     33 H33        -6.9236    1.0358   64.8188 H       1  ZINC000004598904    0.0700
     34 H34        -8.5886   -0.5350   65.7723 H       1  ZINC000004598904    0.0700
     35 H35        -9.5180    0.8404   66.4150 H       1  ZINC000004598904    0.0700
     36 H36       -10.9591    1.7014   62.5611 H       1  ZINC000004598904    0.1400
     37 H37       -11.7597    2.1609   60.2846 H       1  ZINC000004598904    0.1400
     38 H38       -11.5847    0.5570   57.7014 H       1  ZINC000004598904    0.4200
     39 H39       -11.8279    2.4185   55.9430 H       1  ZINC000004598904    0.1100
     40 H40       -10.2872    3.2249   55.5628 H       1  ZINC000004598904    0.1100
     41 H41       -10.1873    0.2499   55.6037 H       1  ZINC000004598904    0.1100
     42 H42       -11.1758    0.9586   54.3042 H       1  ZINC000004598904    0.1100
     43 H43        -9.8913    1.1377   52.4224 H       1  ZINC000004598904    0.4200
     44 H44        -8.6256    3.7084   51.6712 H       1  ZINC000004598904    0.1400
     45 H45        -6.5866    4.2873   50.4298 H       1  ZINC000004598904    0.1400
     46 H46        -3.5917    2.0925   52.2551 H       1  ZINC000004598904    0.0700
     47 H47        -1.9402    2.6601   51.9106 H       1  ZINC000004598904    0.0700
     48 H48        -2.8301    3.7100   53.9732 H       1  ZINC000004598904    0.0800
     49 H49        -2.5539    4.9275   52.7046 H       1  ZINC000004598904    0.0700
     50 H50        -4.2054    4.3599   53.0491 H       1  ZINC000004598904    0.0700
     51 H51        -4.9525    0.4220   51.3320 H       1  ZINC000004598904    0.1400
     52 H52        -6.9940   -0.1442   52.5753 H       1  ZINC000004598904    0.1400
     53 H53        -8.9114   -0.6194   58.7102 H       1  ZINC000004598904    0.1400
     54 H54        -8.0988   -1.0824   60.9817 H       1  ZINC000004598904    0.1400
@<TRIPOS>BOND
     1     1     2    1
     2     1    31    1
     3     1    32    1
     4     1    33    1
     5     2     3    1
     6     2    34    1
     7     2    35    1
     8     3     4    1
     9     4     5    2
    10     4     6    1
    11     6    30   ar
    12     6     7   ar
    13     7     8   ar
    14     7    36    1
    15     8     9   ar
    16     8    37    1
    17     9    10    1
    18     9    29   ar
    19    10    11   am
    20    10    38    1
    21    11    12    2
    22    11    13    1
    23    13    14    1
    24    13    39    1
    25    13    40    1
    26    14    15    1
    27    14    41    1
    28    14    42    1
    29    15    16    2
    30    15    17   am
    31    17    18    1
    32    17    43    1
    33    18    28   ar
    34    18    19   ar
    35    19    20   ar
    36    19    44    1
    37    20    21   ar
    38    20    45    1
    39    21    22    1
    40    21    27   ar
    41    22    23    2
    42    22    24    1
    43    24    25    1
    44    25    26    1
    45    25    46    1
    46    25    47    1
    47    26    48    1
    48    26    49    1
    49    26    50    1
    50    27    28   ar
    51    27    51    1
    52    28    52    1
    53    29    30   ar
    54    29    53    1
    55    30    54    1
@<TRIPOS>SUBSTRUCTURE
     1 ZINC000004598904        1 TEMP              0 ****  ****    0 ROOT


##########                                Name:    ZINC000503413572
##########                DOCK_Rotatable_Bonds:                   7
##########                         Heavy_Atoms:                  26
##########                    Molecular_Weight:             355.375
##########                DOCK_Rotatable_Bonds:                   7
##########                       Formal_Charge:        -1.71363e-07
##########                     HBond_Acceptors:                   9
##########                        HBond_Donors:                   1
##########                         Heavy_Atoms:                  26
##########                          Grid_Score:          -32.655804
##########                     Grid_vdw_energy:          -31.728495
##########                      Grid_es_energy:           -0.927310
##########           Internal_energy_repulsive:           10.359943

@<TRIPOS>MOLECULE
ZINC000503413572
 44 47 1 0 0
SMALL
USER_CHARGES


@<TRIPOS>ATOM
      1 C1         -7.3567    2.5053   49.8971 C.3     1  ZINC000503413572   -0.1200
      2 C2         -6.8207    3.0507   51.1956 C.ar    1  ZINC000503413572   -0.0200
      3 C3         -6.1184    4.2395   51.2081 C.ar    1  ZINC000503413572   -0.1400
      4 C4         -5.6260    4.7414   52.4015 C.ar    1  ZINC000503413572    0.1300
      5 F5         -4.9394    5.9049   52.4119 F       1  ZINC000503413572   -0.1300
      6 C6         -5.8370    4.0525   53.5839 C.ar    1  ZINC000503413572   -0.1400
      7 C7         -6.5391    2.8630   53.5752 C.ar    1  ZINC000503413572   -0.0700
      8 C8         -7.0377    2.3611   52.3810 C.ar    1  ZINC000503413572    0.1000
      9 N9         -7.7515    1.1535   52.3703 N.pl3   1  ZINC000503413572   -0.3100
     10 C10        -8.9882    0.9445   52.8712 C.2     1  ZINC000503413572    0.1100
     11 C11        -9.2893   -0.3687   52.6442 C.2     1  ZINC000503413572   -0.1000
     12 C12       -10.5445   -1.0438   53.0245 C.2     1  ZINC000503413572    0.6100
     13 O13       -10.8408   -2.1078   52.5162 O.2     1  ZINC000503413572   -0.5300
     14 N14       -11.3630   -0.4811   53.9356 N.am    1  ZINC000503413572   -0.7200
     15 C15       -12.6088   -1.1524   54.3146 C.3     1  ZINC000503413572    0.1100
     16 C16       -12.8439   -0.9809   55.8167 C.3     1  ZINC000503413572    0.1000
     17 N17       -12.3336   -2.1556   56.5280 N.pl3   1  ZINC000503413572   -0.4700
     18 C18       -11.2747   -2.2010   57.3721 C.2     1  ZINC000503413572    0.1500
     19 N19       -11.1613   -3.4335   57.7866 N.2     1  ZINC000503413572   -0.2900
     20 N20       -12.0821   -4.1560   57.2539 N.2     1  ZINC000503413572   -0.2900
     21 C21       -12.8284   -3.4161   56.4798 C.2     1  ZINC000503413572    0.2100
     22 C22       -14.0142   -3.8800   55.6738 C.3     1  ZINC000503413572   -0.1000
     23 C23       -14.7030   -5.1742   56.1112 C.3     1  ZINC000503413572   -0.1500
     24 C24       -15.3885   -3.8264   56.3440 C.3     1  ZINC000503413572   -0.1600
     25 N25        -8.2484   -0.9416   52.0157 N.2     1  ZINC000503413572   -0.2000
     26 N26        -7.3210   -0.0676   51.8323 N.2     1  ZINC000503413572   -0.0400
     27 H27        -8.3936    2.8172   49.7724 H       1  ZINC000503413572    0.0900
     28 H28        -6.7601    2.8875   49.0686 H       1  ZINC000503413572    0.0800
     29 H29        -7.3039    1.4167   49.9109 H       1  ZINC000503413572    0.0700
     30 H30        -5.9525    4.7780   50.2868 H       1  ZINC000503413572    0.1500
     31 H31        -5.4520    4.4452   54.5134 H       1  ZINC000503413572    0.1500
     32 H32        -6.7031    2.3257   54.4976 H       1  ZINC000503413572    0.1500
     33 H33        -9.6178    1.6747   53.3578 H       1  ZINC000503413572    0.2100
     34 H34       -11.1272    0.3684   54.3403 H       1  ZINC000503413572    0.4100
     35 H35       -13.4405   -0.7127   53.7641 H       1  ZINC000503413572    0.0800
     36 H36       -12.5365   -2.2137   54.0770 H       1  ZINC000503413572    0.0800
     37 H37       -12.3230   -0.0896   56.1666 H       1  ZINC000503413572    0.1100
     38 H38       -13.9119   -0.8761   56.0077 H       1  ZINC000503413572    0.1100
     39 H39       -10.6414   -1.3714   57.6498 H       1  ZINC000503413572    0.2200
     40 H40       -13.9669   -3.6710   54.6051 H       1  ZINC000503413572    0.1200
     41 H41       -15.1090   -5.8170   55.3301 H       1  ZINC000503413572    0.1100
     42 H42       -14.2984   -5.6902   56.9820 H       1  ZINC000503413572    0.1100
     43 H43       -15.4350   -3.4556   57.3680 H       1  ZINC000503413572    0.1000
     44 H44       -16.2455   -3.5824   55.7161 H       1  ZINC000503413572    0.1100
@<TRIPOS>BOND
     1     1     2    1
     2     1    27    1
     3     1    28    1
     4     1    29    1
     5     2     8   ar
     6     2     3   ar
     7     3     4   ar
     8     3    30    1
     9     4     5    1
    10     4     6   ar
    11     6     7   ar
    12     6    31    1
    13     7     8   ar
    14     7    32    1
    15     8     9    1
    16     9    26    1
    17     9    10    1
    18    10    11    2
    19    10    33    1
    20    11    12    1
    21    11    25    1
    22    12    13    2
    23    12    14   am
    24    14    15    1
    25    14    34    1
    26    15    16    1
    27    15    35    1
    28    15    36    1
    29    16    17    1
    30    16    37    1
    31    16    38    1
    32    17    21    1
    33    17    18    1
    34    18    19    2
    35    18    39    1
    36    19    20    1
    37    20    21    2
    38    21    22    1
    39    22    24    1
    40    22    23    1
    41    22    40    1
    42    23    24    1
    43    23    41    1
    44    23    42    1
    45    24    43    1
    46    24    44    1
    47    25    26    2
@<TRIPOS>SUBSTRUCTURE
     1 ZINC000503413572        1 TEMP              0 ****  ****    0 ROOT


##########                                Name:    ZINC000477589488
##########                DOCK_Rotatable_Bonds:                   6
##########                         Heavy_Atoms:                  32
##########                    Molecular_Weight:             423.517
##########                DOCK_Rotatable_Bonds:                   6
##########                       Formal_Charge:        -8.19564e-07
##########                     HBond_Acceptors:                   6
##########                        HBond_Donors:                   1
##########                         Heavy_Atoms:                  32
##########                          Grid_Score:          -32.645611
##########                     Grid_vdw_energy:          -32.019321
##########                      Grid_es_energy:           -0.626288
##########           Internal_energy_repulsive:           22.351934

@<TRIPOS>MOLECULE
ZINC000477589488
 57 61 1 0 0
SMALL
USER_CHARGES


@<TRIPOS>ATOM
      1 O1        -11.9442    1.8344   56.0228 O.2     1  ZINC000477589488   -0.5800
      2 C2        -11.6096    0.8914   55.3319 C.2     1  ZINC000477589488    0.7100
      3 N3        -11.7503   -0.3666   55.7946 N.am    1  ZINC000477589488   -0.7400
      4 C4        -12.3009   -0.5976   57.1324 C.3     1  ZINC000477589488    0.2500
      5 H5        -12.9063    0.2589   57.4291 H       1  ZINC000477589488    0.1100
      6 C6        -11.1731   -0.7802   58.1152 C.ar    1  ZINC000477589488   -0.0900
      7 C7        -10.7850    0.2709   58.9248 C.ar    1  ZINC000477589488   -0.1000
      8 C8         -9.7505    0.1035   59.8263 C.ar    1  ZINC000477589488   -0.1200
      9 C9         -9.1044   -1.1152   59.9185 C.ar    1  ZINC000477589488   -0.1200
     10 C10        -9.4932   -2.1665   59.1095 C.ar    1  ZINC000477589488   -0.1200
     11 C11       -10.5306   -2.0004   58.2110 C.ar    1  ZINC000477589488   -0.1000
     12 C12       -13.1582   -1.8369   57.1157 C.ar    1  ZINC000477589488   -0.0700
     13 C13       -14.1065   -2.0534   58.1296 C.ar    1  ZINC000477589488   -0.0400
     14 C14       -14.2805   -1.1307   59.1753 C.ar    1  ZINC000477589488   -0.1100
     15 C15       -15.2091   -1.3735   60.1399 C.ar    1  ZINC000477589488   -0.1100
     16 C16       -15.9926   -2.5259   60.1082 C.ar    1  ZINC000477589488   -0.1100
     17 C17       -15.8517   -3.4417   59.1115 C.ar    1  ZINC000477589488   -0.1100
     18 C18       -14.9036   -3.2251   58.0969 C.ar    1  ZINC000477589488   -0.0500
     19 C19       -14.7298   -4.1475   57.0515 C.ar    1  ZINC000477589488   -0.1000
     20 C20       -13.8017   -3.9040   56.0858 C.ar    1  ZINC000477589488   -0.1100
     21 C21       -13.0217   -2.7498   56.1151 C.ar    1  ZINC000477589488   -0.1100
     22 N22       -11.1031    1.1040   54.1012 N.am    1  ZINC000477589488   -0.6300
     23 C23       -10.9354    2.4688   53.5792 C.3     1  ZINC000477589488    0.1300
     24 C24        -9.4993    2.6211   53.0669 C.3     1  ZINC000477589488    0.0500
     25 N25        -9.2093    1.5485   52.1059 N.3     1  ZINC000477589488   -0.4700
     26 C26        -7.9748    1.7453   51.4971 C.ar    1  ZINC000477589488    0.2500
     27 C27        -6.8228    1.1907   52.0535 C.ar    1  ZINC000477589488   -0.1300
     28 C28        -5.6171    1.4162   51.4081 C.ar    1  ZINC000477589488   -0.0900
     29 C29        -5.6303    2.1792   50.2491 C.ar    1  ZINC000477589488    0.0200
     30 N30        -6.7674    2.6657   49.7927 N.ar    1  ZINC000477589488   -0.2200
     31 N31        -7.8882    2.4563   50.3820 N.ar    1  ZINC000477589488   -0.2800
     32 C32        -9.2764    0.2276   52.7453 C.3     1  ZINC000477589488    0.0400
     33 C33       -10.6978   -0.0224   53.2468 C.3     1  ZINC000477589488    0.1200
     34 H34       -11.4872   -1.1190   55.2419 H       1  ZINC000477589488    0.3900
     35 H35       -11.2897    1.2230   58.8528 H       1  ZINC000477589488    0.1100
     36 H36        -9.4468    0.9249   60.4583 H       1  ZINC000477589488    0.1200
     37 H37        -8.2958   -1.2457   60.6223 H       1  ZINC000477589488    0.1200
     38 H38        -8.9882   -3.1185   59.1813 H       1  ZINC000477589488    0.1200
     39 H39       -10.8343   -2.8217   57.5790 H       1  ZINC000477589488    0.1200
     40 H40       -13.6802   -0.2337   59.2133 H       1  ZINC000477589488    0.1300
     41 H41       -15.3409   -0.6628   60.9424 H       1  ZINC000477589488    0.1300
     42 H42       -16.7222   -2.6946   60.8864 H       1  ZINC000477589488    0.1300
     43 H43       -16.4654   -4.3304   59.1003 H       1  ZINC000477589488    0.1300
     44 H44       -15.3290   -5.0452   57.0144 H       1  ZINC000477589488    0.1300
     45 H45       -13.6699   -4.6148   55.2835 H       1  ZINC000477589488    0.1300
     46 H46       -12.2927   -2.5805   55.3364 H       1  ZINC000477589488    0.1200
     47 H47       -11.6358    2.6365   52.7610 H       1  ZINC000477589488    0.0800
     48 H48       -11.1186    3.1904   54.3754 H       1  ZINC000477589488    0.1100
     49 H49        -9.3885    3.5883   52.5768 H       1  ZINC000477589488    0.1000
     50 H50        -8.8054    2.5559   53.9050 H       1  ZINC000477589488    0.0600
     51 H51        -6.8686    0.6041   52.9592 H       1  ZINC000477589488    0.1500
     52 H52        -4.6945    1.0104   51.7961 H       1  ZINC000477589488    0.1500
     53 H53        -4.7088    2.3749   49.7211 H       1  ZINC000477589488    0.1700
     54 H54        -9.0040   -0.5408   52.0218 H       1  ZINC000477589488    0.1000
     55 H55        -8.5856    0.1958   53.5878 H       1  ZINC000477589488    0.0600
     56 H56       -10.7257   -0.9483   53.8212 H       1  ZINC000477589488    0.0800
     57 H57       -11.3781   -0.0940   52.3982 H       1  ZINC000477589488    0.0900
@<TRIPOS>BOND
     1     1     2    2
     2     2     3   am
     3     2    22   am
     4     3     4    1
     5     3    34    1
     6     4     5    1
     7     4     6    1
     8     4    12    1
     9     6    11   ar
    10     6     7   ar
    11     7     8   ar
    12     7    35    1
    13     8     9   ar
    14     8    36    1
    15     9    10   ar
    16     9    37    1
    17    10    11   ar
    18    10    38    1
    19    11    39    1
    20    12    21   ar
    21    12    13   ar
    22    13    18   ar
    23    13    14   ar
    24    14    15   ar
    25    14    40    1
    26    15    16   ar
    27    15    41    1
    28    16    17   ar
    29    16    42    1
    30    17    18   ar
    31    17    43    1
    32    18    19   ar
    33    19    20   ar
    34    19    44    1
    35    20    21   ar
    36    20    45    1
    37    21    46    1
    38    22    33    1
    39    22    23    1
    40    23    24    1
    41    23    47    1
    42    23    48    1
    43    24    25    1
    44    24    49    1
    45    24    50    1
    46    25    26    1
    47    25    32    1
    48    26    31   ar
    49    26    27   ar
    50    27    28   ar
    51    27    51    1
    52    28    29   ar
    53    28    52    1
    54    29    30   ar
    55    29    53    1
    56    30    31   ar
    57    32    33    1
    58    32    54    1
    59    32    55    1
    60    33    56    1
    61    33    57    1
@<TRIPOS>SUBSTRUCTURE
     1 ZINC000477589488        1 TEMP              0 ****  ****    0 ROOT


##########                                Name:     oleObject27.pdb
##########                DOCK_Rotatable_Bonds:                   9
##########                         Heavy_Atoms:                  35
##########                    Molecular_Weight:             513.466
##########                DOCK_Rotatable_Bonds:                   9
##########                       Formal_Charge:         0.000199873
##########                     HBond_Acceptors:                   8
##########                        HBond_Donors:                   1
##########                         Heavy_Atoms:                  35
##########                          Grid_Score:          -32.644249
##########                     Grid_vdw_energy:          -33.000584
##########                      Grid_es_energy:            0.356335
##########           Internal_energy_repulsive:           56.660919

@<TRIPOS>MOLECULE
oleObject27.pdb
 65 68 1 0 0
SMALL
NO_CHARGES


@<TRIPOS>ATOM
      1 C          -1.3453    2.0811   57.8129 C.ar    1  UNL        -0.0620
      2 C          -2.2279    2.4644   56.7928 C.ar    1  UNL        -0.0590
      3 C          -1.7639    3.1760   55.6693 C.ar    1  UNL        -0.0456
      4 C          -0.3888    3.5025   55.5644 C.ar    1  UNL        -0.0187
      5 C           0.4858    3.1193   56.6050 C.ar    1  UNL        -0.0565
      6 C           0.0127    2.4121   57.7201 C.ar    1  UNL        -0.0619
      7 C           0.1539    4.2763   54.3525 C.3     1  UNL         0.0921
      8 C           1.2350    5.2918   54.7359 C.ar    1  UNL         0.0681
      9 C           0.9177    6.5963   55.1907 C.ar    1  UNL        -0.0272
     10 C           1.9759    7.4682   55.5094 C.ar    1  UNL        -0.0559
     11 C           3.2974    7.0238   55.3576 C.ar    1  UNL        -0.0435
     12 C           3.5188    5.7215   54.8853 C.ar    1  UNL         0.0272
     13 N           2.5140    4.8798   54.5783 N.ar    1  UNL        -0.2587
     14 C          -0.5199    7.0834   55.3314 C.3     1  UNL        -0.0379
     15 N           0.6396    3.3950   53.2808 N.am    1  UNL        -0.2865
     16 C           1.7840    2.6235   53.3726 C.2     1  UNL         0.3014
     17 O           2.4842    2.6278   54.3714 O.2     1  UNL        -0.2541
     18 N           2.0806    1.8508   52.2482 N.am    1  UNL        -0.2833
     19 C           1.2234    1.8560   51.0314 C.3     1  UNL         0.0284
     20 C           1.4832    0.6923   50.0439 C.3     1  UNL         0.0142
     21 N           2.9183    0.4770   49.7899 N.4     1  UNL        -0.2979
     22 C           3.5990    0.1743   51.0644 C.3     1  UNL         0.0142
     23 C           3.4582    1.3237   52.0888 C.3     1  UNL         0.0284
     24 C           3.5307    1.5502   48.9703 C.3     1  UNL         0.0223
     25 C           2.7047    1.9060   47.7178 C.3     1  UNL         0.0661
     26 O           2.6125    0.7220   46.9064 O.3     1  UNL        -0.3432
     27 C           1.8998    0.6583   45.7245 C.ar    1  UNL         0.0937
     28 C           0.6070    0.0958   45.6595 C.ar    1  UNL        -0.0288
     29 C          -0.0835    0.0510   44.4368 C.ar    1  UNL        -0.0408
     30 C           0.5109    0.5662   43.2741 C.ar    1  UNL         0.0422
     31 C           1.7961    1.1275   43.3307 C.ar    1  UNL        -0.0221
     32 C           2.4889    1.1739   44.5518 C.ar    1  UNL         0.0723
     33 CL          4.0932    1.8815   44.5883 Cl      1  UNL        -0.0814
     34 CL         -0.3522    0.5088   41.7520 Cl      1  UNL        -0.0843
     35 C          -2.7690    3.5827   54.5969 C.3     1  UNL        -0.0394
     36 H          -1.7146    1.5340   58.6756 H       1  UNL         0.0623
     37 H          -3.2800    2.2080   56.8790 H       1  UNL         0.0626
     38 H           1.5402    3.3750   56.5580 H       1  UNL         0.0627
     39 H           0.6983    2.1236   58.5116 H       1  UNL         0.0623
     40 H          -0.6902    4.8257   53.9255 H       1  UNL         0.0625
     41 H           1.7786    8.4757   55.8647 H       1  UNL         0.0627
     42 H           4.1327    7.6759   55.5949 H       1  UNL         0.0639
     43 H           4.5298    5.3399   54.7484 H       1  UNL         0.0840
     44 H          -1.0797    6.9383   54.3988 H       1  UNL         0.0280
     45 H          -0.5631    8.1525   55.5746 H       1  UNL         0.0280
     46 H          -1.0429    6.5430   56.1301 H       1  UNL         0.0280
     47 H           0.1284    3.3842   52.4094 H       1  UNL         0.1521
     48 H           1.3836    2.8079   50.5090 H       1  UNL         0.0484
     49 H           0.1663    1.8092   51.3207 H       1  UNL         0.0484
     50 H           0.9529    0.8856   49.1026 H       1  UNL         0.0447
     51 H           1.0569   -0.2236   50.4737 H       1  UNL         0.0447
     52 H           4.6603   -0.0485   50.9044 H       1  UNL         0.0447
     53 H           3.1487   -0.7269   51.5004 H       1  UNL         0.0447
     54 H           4.1053    2.1554   51.7831 H       1  UNL         0.0484
     55 H           3.8235    0.9633   53.0591 H       1  UNL         0.0484
     56 H           4.5428    1.2651   48.6564 H       1  UNL         0.0455
     57 H           3.6213    2.4582   49.5804 H       1  UNL         0.0455
     58 H           3.2065    2.7099   47.1642 H       1  UNL         0.0586
     59 H           1.7012    2.2396   48.0089 H       1  UNL         0.0586
     60 H           0.1282   -0.3077   46.5457 H       1  UNL         0.0652
     61 H          -1.0784   -0.3830   44.3920 H       1  UNL         0.0639
     62 H           2.2552    1.5260   42.4303 H       1  UNL         0.0655
     63 H          -3.7973    3.3373   54.8903 H       1  UNL         0.0280
     64 H          -2.5669    3.0655   53.6507 H       1  UNL         0.0280
     65 H          -2.7343    4.6633   54.4114 H       1  UNL         0.0280
@<TRIPOS>BOND
     1     1     2   ar
     2     1     6   ar
     3     1    36    1
     4     2     3   ar
     5     2    37    1
     6     3     4   ar
     7     3    35    1
     8     4     5   ar
     9     4     7    1
    10     5     6   ar
    11     5    38    1
    12     6    39    1
    13     7     8    1
    14     7    15    1
    15     7    40    1
    16     8     9   ar
    17     8    13   ar
    18     9    10   ar
    19     9    14    1
    20    10    11   ar
    21    10    41    1
    22    11    12   ar
    23    11    42    1
    24    12    13   ar
    25    12    43    1
    26    14    44    1
    27    14    45    1
    28    14    46    1
    29    15    16   am
    30    15    47    1
    31    16    17    2
    32    16    18   am
    33    18    19    1
    34    18    23    1
    35    19    20    1
    36    19    48    1
    37    19    49    1
    38    20    21    1
    39    20    50    1
    40    20    51    1
    41    21    22    1
    42    21    24    1
    43    22    23    1
    44    22    52    1
    45    22    53    1
    46    23    54    1
    47    23    55    1
    48    24    25    1
    49    24    56    1
    50    24    57    1
    51    25    26    1
    52    25    58    1
    53    25    59    1
    54    26    27    1
    55    27    28   ar
    56    27    32   ar
    57    28    29   ar
    58    28    60    1
    59    29    30   ar
    60    29    61    1
    61    30    31   ar
    62    30    34    1
    63    31    32   ar
    64    31    62    1
    65    32    33    1
    66    35    63    1
    67    35    64    1
    68    35    65    1
@<TRIPOS>SUBSTRUCTURE
     1 UNL         1 TEMP              0 ****  ****    0 ROOT


##########                                Name:    ZINC000150894060
##########                DOCK_Rotatable_Bonds:                  10
##########                         Heavy_Atoms:                  27
##########                    Molecular_Weight:              366.42
##########                DOCK_Rotatable_Bonds:                  10
##########                       Formal_Charge:        -6.70552e-07
##########                     HBond_Acceptors:                   7
##########                        HBond_Donors:                   2
##########                         Heavy_Atoms:                  27
##########                          Grid_Score:          -32.628796
##########                     Grid_vdw_energy:          -31.446630
##########                      Grid_es_energy:           -1.182164
##########           Internal_energy_repulsive:            8.401695

@<TRIPOS>MOLECULE
ZINC000150894060
 49 51 1 0 0
SMALL
USER_CHARGES


@<TRIPOS>ATOM
      1 C1        -11.1741   -0.1353   55.6080 C.3     1  ZINC000150894060   -0.1000
      2 C2        -11.3498   -1.0174   54.3988 C.2     1  ZINC000150894060   -0.0800
      3 C3        -11.9985   -2.2180   54.3531 C.2     1  ZINC000150894060   -0.1000
      4 C4        -12.6544   -2.8866   55.4817 C.2     1  ZINC000150894060    0.6100
      5 O5        -12.1245   -2.8920   56.5772 O.2     1  ZINC000150894060   -0.5100
      6 N6        -13.8440   -3.4951   55.3055 N.am    1  ZINC000150894060   -0.7200
      7 C7        -14.5000   -4.1615   56.4332 C.3     1  ZINC000150894060    0.1200
      8 C8        -15.4084   -3.1649   57.1562 C.3     1  ZINC000150894060   -0.1500
      9 C9        -15.2227   -3.3095   58.6680 C.3     1  ZINC000150894060    0.1200
     10 N10       -14.0501   -2.5402   59.0918 N.am    1  ZINC000150894060   -0.7300
     11 C11       -13.7284   -2.4670   60.3985 C.2     1  ZINC000150894060    0.5600
     12 O12       -14.4103   -3.0404   61.2253 O.2     1  ZINC000150894060   -0.5300
     13 C13       -12.5461   -1.6892   60.8263 C.ar    1  ZINC000150894060   -0.1300
     14 C14       -11.2700   -2.2476   60.7369 C.ar    1  ZINC000150894060   -0.0900
     15 C15       -10.1708   -1.5162   61.1372 C.ar    1  ZINC000150894060   -0.0900
     16 C16       -10.3314   -0.2322   61.6269 C.ar    1  ZINC000150894060   -0.0800
     17 C17        -9.1262    0.5606   62.0629 C.3     1  ZINC000150894060    0.1700
     18 N18        -9.1888    0.7886   63.5087 N.pl3   1  ZINC000150894060   -0.3700
     19 C19        -9.7084    1.8739   64.1196 C.2     1  ZINC000150894060    0.0500
     20 C20        -9.5741    1.6996   65.4547 C.2     1  ZINC000150894060   -0.2700
     21 C21        -8.9513    0.4653   65.6671 C.2     1  ZINC000150894060    0.0400
     22 N22        -8.7253   -0.0844   64.5015 N.2     1  ZINC000150894060   -0.2900
     23 C23       -11.5935    0.3273   61.7176 C.ar    1  ZINC000150894060   -0.1100
     24 C24       -12.7005   -0.3912   61.3158 C.ar    1  ZINC000150894060   -0.0600
     25 O25       -11.9304   -2.6814   53.0879 O.3     1  ZINC000150894060   -0.1700
     26 C26       -11.2560   -1.8071   52.3300 C.2     1  ZINC000150894060    0.0000
     27 C27       -10.8834   -0.7611   53.1000 C.2     1  ZINC000150894060   -0.2300
     28 H28       -12.0129    0.5573   55.6775 H       1  ZINC000150894060    0.0800
     29 H29       -11.1373   -0.7525   56.5057 H       1  ZINC000150894060    0.0900
     30 H30       -10.2451    0.4273   55.5155 H       1  ZINC000150894060    0.0700
     31 H31       -14.2658   -3.4918   54.4320 H       1  ZINC000150894060    0.4100
     32 H32       -15.0967   -4.9960   56.0650 H       1  ZINC000150894060    0.0800
     33 H33       -13.7444   -4.5327   57.1255 H       1  ZINC000150894060    0.0800
     34 H34       -15.1485   -2.1506   56.8536 H       1  ZINC000150894060    0.0800
     35 H35       -16.4477   -3.3663   56.8969 H       1  ZINC000150894060    0.0800
     36 H36       -16.1083   -2.9338   59.1805 H       1  ZINC000150894060    0.0800
     37 H37       -15.0771   -4.3605   58.9173 H       1  ZINC000150894060    0.0800
     38 H38       -13.5052   -2.0836   58.4318 H       1  ZINC000150894060    0.4000
     39 H39       -11.1434   -3.2500   60.3556 H       1  ZINC000150894060    0.1300
     40 H40        -9.1829   -1.9472   61.0687 H       1  ZINC000150894060    0.1300
     41 H41        -8.2196    0.0058   61.8215 H       1  ZINC000150894060    0.1100
     42 H42        -9.1147    1.5191   61.5441 H       1  ZINC000150894060    0.1000
     43 H43       -10.1515    2.7288   63.6303 H       1  ZINC000150894060    0.1700
     44 H44        -9.8914    2.3914   66.2209 H       1  ZINC000150894060    0.1500
     45 H45        -8.7042    0.0377   66.6276 H       1  ZINC000150894060    0.1800
     46 H46       -11.7121    1.3302   62.1005 H       1  ZINC000150894060    0.1300
     47 H47       -13.6851    0.0469   61.3868 H       1  ZINC000150894060    0.1400
     48 H48       -11.0479   -1.9180   51.2759 H       1  ZINC000150894060    0.2100
     49 H49       -10.3258    0.1060   52.7780 H       1  ZINC000150894060    0.1600
@<TRIPOS>BOND
     1     1     2    1
     2     1    28    1
     3     1    29    1
     4     1    30    1
     5     2    27    1
     6     2     3    2
     7     3     4    1
     8     3    25    1
     9     4     5    2
    10     4     6   am
    11     6     7    1
    12     6    31    1
    13     7     8    1
    14     7    32    1
    15     7    33    1
    16     8     9    1
    17     8    34    1
    18     8    35    1
    19     9    10    1
    20     9    36    1
    21     9    37    1
    22    10    11   am
    23    10    38    1
    24    11    12    2
    25    11    13    1
    26    13    24   ar
    27    13    14   ar
    28    14    15   ar
    29    14    39    1
    30    15    16   ar
    31    15    40    1
    32    16    17    1
    33    16    23   ar
    34    17    18    1
    35    17    41    1
    36    17    42    1
    37    18    22    1
    38    18    19    1
    39    19    20    2
    40    19    43    1
    41    20    21    1
    42    20    44    1
    43    21    22    2
    44    21    45    1
    45    23    24   ar
    46    23    46    1
    47    24    47    1
    48    25    26    1
    49    26    27    2
    50    26    48    1
    51    27    49    1
@<TRIPOS>SUBSTRUCTURE
     1 ZINC000150894060        1 TEMP              0 ****  ****    0 ROOT


##########                                Name:    ZINC001060578637
##########                DOCK_Rotatable_Bonds:                  10
##########                         Heavy_Atoms:                  25
##########                    Molecular_Weight:             345.401
##########                DOCK_Rotatable_Bonds:                  10
##########                       Formal_Charge:          -0.0400001
##########                     HBond_Acceptors:                   8
##########                        HBond_Donors:                   3
##########                         Heavy_Atoms:                  25
##########                          Grid_Score:          -32.619816
##########                     Grid_vdw_energy:          -28.905678
##########                      Grid_es_energy:           -3.714138
##########           Internal_energy_repulsive:            8.892711

@<TRIPOS>MOLECULE
ZINC001060578637
 48 49 1 0 0
SMALL
USER_CHARGES


@<TRIPOS>ATOM
      1 C1         -2.8458    2.5359   65.6764 C.3     1  ZINC001060578637   -0.1500
      2 C2         -4.0417    1.5820   65.6970 C.3     1  ZINC001060578637   -0.1300
      3 C3         -5.3180    2.3569   65.3629 C.3     1  ZINC001060578637    0.0700
      4 H4         -5.2400    2.7692   64.3570 H       1  ZINC001060578637    0.0900
      5 O5         -5.4889    3.4206   66.3017 O.3     1  ZINC001060578637   -0.3600
      6 C6         -6.6154    4.2579   66.0329 C.3     1  ZINC001060578637    0.0300
      7 C7         -6.5028    1.4284   65.4348 C.2     1  ZINC001060578637    0.5000
      8 O8         -6.6706    0.7342   66.4150 O.2     1  ZINC001060578637   -0.5200
      9 N9         -7.3760    1.3695   64.4098 N.am    1  ZINC001060578637   -0.7300
     10 C10        -8.5287    0.4682   64.4804 C.3     1  ZINC001060578637    0.1600
     11 C11        -8.9679    0.1042   63.0855 C.ar    1  ZINC001060578637   -0.1100
     12 C12        -8.2356   -0.8051   62.3454 C.ar    1  ZINC001060578637   -0.0900
     13 C13        -8.6385   -1.1389   61.0659 C.ar    1  ZINC001060578637   -0.1100
     14 C14        -9.7740   -0.5639   60.5267 C.ar    1  ZINC001060578637   -0.0900
     15 C15       -10.2131   -0.9275   59.1317 C.3     1  ZINC001060578637    0.1800
     16 H16        -9.5335   -1.6736   58.7199 H       1  ZINC001060578637    0.1000
     17 C17       -10.1941    0.3221   58.2491 C.3     1  ZINC001060578637   -0.1600
     18 N18       -11.5713   -1.4747   59.1742 N.am    1  ZINC001060578637   -0.7000
     19 C19       -11.9859   -2.3245   58.2137 C.2     1  ZINC001060578637    0.6100
     20 O20       -11.2330   -2.6357   57.3109 O.2     1  ZINC001060578637   -0.5300
     21 C21       -13.3524   -2.8767   58.2574 C.2     1  ZINC001060578637    0.1200
     22 N22       -14.2844   -2.5916   59.1416 N.2     1  ZINC001060578637   -0.2400
     23 N23       -15.3501   -3.2579   58.8703 N.2     1  ZINC001060578637   -0.2900
     24 C24       -15.1561   -3.9982   57.8061 C.2     1  ZINC001060578637    0.1900
     25 N25       -13.8958   -3.7806   57.3812 N.pl3   1  ZINC001060578637   -0.5500
     26 C26       -10.5072    0.3443   61.2674 C.ar    1  ZINC001060578637   -0.1100
     27 C27       -10.1064    0.6753   62.5482 C.ar    1  ZINC001060578637   -0.0900
     28 H28        -1.9326    1.9782   65.8837 H       1  ZINC001060578637    0.0600
     29 H29        -2.7709    3.0037   64.6947 H       1  ZINC001060578637    0.0500
     30 H30        -2.9818    3.3056   66.4362 H       1  ZINC001060578637    0.0600
     31 H31        -3.8911    0.7945   64.9585 H       1  ZINC001060578637    0.0800
     32 H32        -4.1352    1.1377   66.6880 H       1  ZINC001060578637    0.0800
     33 H33        -6.7210    4.9923   66.8314 H       1  ZINC001060578637    0.0900
     34 H34        -6.4673    4.7722   65.0834 H       1  ZINC001060578637    0.0500
     35 H35        -7.5169    3.6476   65.9790 H       1  ZINC001060578637    0.0400
     36 H36        -7.2410    1.9239   63.6253 H       1  ZINC001060578637    0.4000
     37 H37        -8.2503   -0.4362   65.0212 H       1  ZINC001060578637    0.0800
     38 H38        -9.3473    0.9654   65.0008 H       1  ZINC001060578637    0.0800
     39 H39        -7.3485   -1.2544   62.7667 H       1  ZINC001060578637    0.1300
     40 H40        -8.0659   -1.8488   60.4874 H       1  ZINC001060578637    0.1300
     41 H41       -10.8737    1.0681   58.6610 H       1  ZINC001060578637    0.0600
     42 H42        -9.1835    0.7293   58.2175 H       1  ZINC001060578637    0.0700
     43 H43       -10.5117    0.0591   57.2401 H       1  ZINC001060578637    0.0700
     44 H44       -12.1723   -1.2256   59.8937 H       1  ZINC001060578637    0.4100
     45 H45       -15.8774   -4.6601   57.3500 H       1  ZINC001060578637    0.2300
     46 H46       -13.4601   -4.1852   56.6149 H       1  ZINC001060578637    0.4400
     47 H47       -11.3946    0.7933   60.8462 H       1  ZINC001060578637    0.1300
     48 H48       -10.6792    1.3850   63.1269 H       1  ZINC001060578637    0.1300
@<TRIPOS>BOND
     1     1     2    1
     2     1    28    1
     3     1    29    1
     4     1    30    1
     5     2     3    1
     6     2    31    1
     7     2    32    1
     8     3     4    1
     9     3     5    1
    10     3     7    1
    11     5     6    1
    12     6    33    1
    13     6    34    1
    14     6    35    1
    15     7     8    2
    16     7     9   am
    17     9    10    1
    18     9    36    1
    19    10    11    1
    20    10    37    1
    21    10    38    1
    22    11    27   ar
    23    11    12   ar
    24    12    13   ar
    25    12    39    1
    26    13    14   ar
    27    13    40    1
    28    14    15    1
    29    14    26   ar
    30    15    16    1
    31    15    17    1
    32    15    18    1
    33    17    41    1
    34    17    42    1
    35    17    43    1
    36    18    19   am
    37    18    44    1
    38    19    20    2
    39    19    21    1
    40    21    25    1
    41    21    22    2
    42    22    23    1
    43    23    24    2
    44    24    25    1
    45    24    45    1
    46    25    46    1
    47    26    27   ar
    48    26    47    1
    49    27    48    1
@<TRIPOS>SUBSTRUCTURE
     1 ZINC001060578637        1 TEMP              0 ****  ****    0 ROOT


##########                                Name:    ZINC000175255939
##########                DOCK_Rotatable_Bonds:                   8
##########                         Heavy_Atoms:                  28
##########                    Molecular_Weight:             394.375
##########                DOCK_Rotatable_Bonds:                   8
##########                       Formal_Charge:          -0.0399999
##########                     HBond_Acceptors:                   9
##########                        HBond_Donors:                   1
##########                         Heavy_Atoms:                  28
##########                          Grid_Score:          -32.567692
##########                     Grid_vdw_energy:          -29.386591
##########                      Grid_es_energy:           -3.181100
##########           Internal_energy_repulsive:            8.477050

@<TRIPOS>MOLECULE
ZINC000175255939
 48 50 1 0 0
SMALL
USER_CHARGES


@<TRIPOS>ATOM
      1 C1         -2.2419    3.5753   53.1230 C.3     1  ZINC000175255939    0.0300
      2 O2         -3.5689    3.0723   52.8158 O.3     1  ZINC000175255939   -0.3600
      3 C3         -4.2402    3.6868   51.8291 C.2     1  ZINC000175255939    0.4600
      4 O4         -3.7148    4.5779   51.2048 O.2     1  ZINC000175255939   -0.5000
      5 C5         -5.6491    3.2653   51.5000 C.3     1  ZINC000175255939   -0.0800
      6 H6         -6.1490    4.0644   50.9526 H       1  ZINC000175255939    0.1100
      7 C7         -5.6153    2.0008   50.6392 C.3     1  ZINC000175255939   -0.1200
      8 C8         -7.0458    1.5729   50.3052 C.3     1  ZINC000175255939   -0.1100
      9 C9         -7.8084    1.2877   51.6006 C.3     1  ZINC000175255939   -0.1200
     10 C10        -7.8422    2.5521   52.4614 C.3     1  ZINC000175255939   -0.1000
     11 H11        -8.3421    3.3511   51.9139 H       1  ZINC000175255939    0.1100
     12 C12        -8.5934    2.2711   53.7373 C.2     1  ZINC000175255939    0.5100
     13 O13        -9.7828    2.4986   53.8034 O.2     1  ZINC000175255939   -0.4800
     14 N14        -7.9433    1.7670   54.8048 N.am    1  ZINC000175255939   -0.6300
     15 C15        -8.6347    1.5097   55.9803 C.2     1  ZINC000175255939    0.2100
     16 C16        -8.1499    1.6092   57.2501 C.2     1  ZINC000175255939   -0.2600
     17 C17        -9.2517    1.2403   58.0648 C.2     1  ZINC000175255939    0.0900
     18 C18        -9.2807    1.1741   59.5469 C.ar    1  ZINC000175255939   -0.0500
     19 C19        -9.0264   -0.0322   60.1970 C.ar    1  ZINC000175255939   -0.0600
     20 C20        -9.0539   -0.0907   61.5744 C.ar    1  ZINC000175255939   -0.1300
     21 C21        -9.3351    1.0505   62.3136 C.ar    1  ZINC000175255939    0.1200
     22 O22        -9.3616    0.9899   63.6704 O.3     1  ZINC000175255939   -0.3200
     23 C23        -8.2389    0.3847   64.3149 C.3     1  ZINC000175255939    0.4100
     24 F24        -7.9213    1.1049   65.4716 F       1  ZINC000175255939   -0.2000
     25 F25        -8.5537   -0.9344   64.6585 F       1  ZINC000175255939   -0.2000
     26 C26        -9.5888    2.2537   61.6686 C.ar    1  ZINC000175255939   -0.1900
     27 C27        -9.5565    2.3195   60.2917 C.ar    1  ZINC000175255939   -0.0500
     28 N28       -10.2395    0.9693   57.2454 N.2     1  ZINC000175255939   -0.3600
     29 O29        -9.9147    1.1195   56.0907 O.3     1  ZINC000175255939    0.1200
     30 C30        -6.4118    2.9800   52.7955 C.3     1  ZINC000175255939   -0.0900
     31 H31        -1.8116    2.9918   53.9369 H       1  ZINC000175255939    0.1000
     32 H32        -1.6078    3.4906   52.2404 H       1  ZINC000175255939    0.0600
     33 H33        -2.3101    4.6212   53.4223 H       1  ZINC000175255939    0.0600
     34 H34        -5.0720    2.2041   49.7164 H       1  ZINC000175255939    0.0800
     35 H35        -5.1155    1.2018   51.1868 H       1  ZINC000175255939    0.0700
     36 H36        -7.5456    2.3719   49.7577 H       1  ZINC000175255939    0.0700
     37 H37        -7.0216    0.6722   49.6919 H       1  ZINC000175255939    0.0800
     38 H38        -8.8275    0.9828   51.3626 H       1  ZINC000175255939    0.0700
     39 H39        -7.3086    0.4886   52.1480 H       1  ZINC000175255939    0.0800
     40 H40        -6.9923    1.5838   54.7516 H       1  ZINC000175255939    0.4300
     41 H41        -7.1583    1.9007   57.5634 H       1  ZINC000175255939    0.1800
     42 H42        -8.8083   -0.9204   59.6225 H       1  ZINC000175255939    0.1400
     43 H43        -8.8570   -1.0253   62.0786 H       1  ZINC000175255939    0.1400
     44 H44        -7.3849    0.3900   63.6377 H       1  ZINC000175255939    0.1900
     45 H45        -9.8073    3.1397   62.2461 H       1  ZINC000175255939    0.1400
     46 H46        -9.7535    3.2556   59.7906 H       1  ZINC000175255939    0.1400
     47 H47        -5.9119    2.1810   53.3429 H       1  ZINC000175255939    0.0900
     48 H48        -6.4358    3.8808   53.4087 H       1  ZINC000175255939    0.0800
@<TRIPOS>BOND
     1     1     2    1
     2     1    31    1
     3     1    32    1
     4     1    33    1
     5     2     3    1
     6     3     4    2
     7     3     5    1
     8     5     6    1
     9     5    30    1
    10     5     7    1
    11     7     8    1
    12     7    34    1
    13     7    35    1
    14     8     9    1
    15     8    36    1
    16     8    37    1
    17     9    10    1
    18     9    38    1
    19     9    39    1
    20    10    11    1
    21    10    12    1
    22    10    30    1
    23    12    13    2
    24    12    14   am
    25    14    15    1
    26    14    40    1
    27    15    29    1
    28    15    16    2
    29    16    17    1
    30    16    41    1
    31    17    18    1
    32    17    28    2
    33    18    27   ar
    34    18    19   ar
    35    19    20   ar
    36    19    42    1
    37    20    21   ar
    38    20    43    1
    39    21    22    1
    40    21    26   ar
    41    22    23    1
    42    23    24    1
    43    23    25    1
    44    23    44    1
    45    26    27   ar
    46    26    45    1
    47    27    46    1
    48    28    29    1
    49    30    47    1
    50    30    48    1
@<TRIPOS>SUBSTRUCTURE
     1 ZINC000175255939        1 TEMP              0 ****  ****    0 ROOT


##########                                Name:    ZINC000533037883
##########                DOCK_Rotatable_Bonds:                   7
##########                         Heavy_Atoms:                  27
##########                    Molecular_Weight:             368.479
##########                DOCK_Rotatable_Bonds:                   7
##########                       Formal_Charge:          0.00999947
##########                     HBond_Acceptors:                   6
##########                        HBond_Donors:                   1
##########                         Heavy_Atoms:                  27
##########                          Grid_Score:          -32.561054
##########                     Grid_vdw_energy:          -32.110054
##########                      Grid_es_energy:           -0.450999
##########           Internal_energy_repulsive:           16.422649

@<TRIPOS>MOLECULE
ZINC000533037883
 55 58 1 0 0
SMALL
USER_CHARGES


@<TRIPOS>ATOM
      1 O1        -10.8725   -2.3701   53.6121 O.2     1  ZINC000533037883   -0.5900
      2 C2        -11.3086   -1.4449   54.2696 C.2     1  ZINC000533037883    0.7100
      3 N3        -12.1199   -1.6870   55.3183 N.am    1  ZINC000533037883   -0.7500
      4 C4        -12.4812   -3.0645   55.6622 C.3     1  ZINC000533037883    0.1400
      5 C5        -11.5731   -3.5641   56.7876 C.3     1  ZINC000533037883   -0.0500
      6 C6        -11.7760   -2.7106   58.0130 C.2     1  ZINC000533037883   -0.2300
      7 C7        -10.8184   -2.3462   58.8968 C.2     1  ZINC000533037883    0.0600
      8 N8        -11.4047   -1.5850   59.8483 N.pl3   1  ZINC000533037883   -0.3200
      9 C9        -10.7634   -1.0033   60.9508 C.ar    1  ZINC000533037883    0.1600
     10 C10       -11.4919   -0.2500   61.8615 C.ar    1  ZINC000533037883   -0.1400
     11 C11       -10.8572    0.3219   62.9468 C.ar    1  ZINC000533037883   -0.0900
     12 C12        -9.4976    0.1452   63.1265 C.ar    1  ZINC000533037883   -0.1300
     13 C13        -8.7694   -0.6046   62.2212 C.ar    1  ZINC000533037883   -0.0900
     14 C14        -9.3996   -1.1841   61.1374 C.ar    1  ZINC000533037883   -0.1200
     15 N15       -12.7665   -1.4802   59.5368 N.2     1  ZINC000533037883   -0.2900
     16 C16       -12.9869   -2.1504   58.4345 C.2     1  ZINC000533037883    0.0700
     17 N17       -10.9762   -0.1777   53.9533 N.am    1  ZINC000533037883   -0.6300
     18 C18       -11.4902    0.9502   54.7421 C.3     1  ZINC000533037883    0.1100
     19 C19       -10.3083    1.8097   55.2017 C.3     1  ZINC000533037883   -0.1400
     20 C20        -9.4779    2.2212   53.9837 C.3     1  ZINC000533037883   -0.1100
     21 C21        -8.9267    0.9711   53.2941 C.3     1  ZINC000533037883   -0.0900
     22 H22        -8.3181    0.4051   53.9992 H       1  ZINC000533037883    0.0800
     23 C23        -8.0691    1.3848   52.0965 C.3     1  ZINC000533037883   -0.1200
     24 H24        -8.6913    1.7841   51.2956 H       1  ZINC000533037883    0.0900
     25 C25        -6.9867    2.4143   52.5212 C.3     1  ZINC000533037883   -0.1500
     26 C26        -5.8830    2.1305   51.4713 C.3     1  ZINC000533037883    0.0500
     27 O27        -5.9192    0.7097   51.2636 O.3     1  ZINC000533037883   -0.3900
     28 C28        -7.2199    0.1980   51.5928 C.3     1  ZINC000533037883    0.0500
     29 C29       -10.0881    0.1018   52.8166 C.3     1  ZINC000533037883    0.1300
     30 H30       -12.4646   -0.9492   55.8453 H       1  ZINC000533037883    0.4000
     31 H31       -13.5196   -3.0962   55.9919 H       1  ZINC000533037883    0.0700
     32 H32       -12.3585   -3.7017   54.7863 H       1  ZINC000533037883    0.0700
     33 H33       -11.8201   -4.5997   57.0212 H       1  ZINC000533037883    0.0800
     34 H34       -10.5324   -3.5015   56.4696 H       1  ZINC000533037883    0.0800
     35 H35        -9.7734   -2.6153   58.8507 H       1  ZINC000533037883    0.1800
     36 H36       -12.5537   -0.1110   61.7213 H       1  ZINC000533037883    0.1300
     37 H37       -11.4235    0.9080   63.6556 H       1  ZINC000533037883    0.1300
     38 H38        -9.0035    0.5939   63.9755 H       1  ZINC000533037883    0.1300
     39 H39        -7.7077   -0.7409   62.3641 H       1  ZINC000533037883    0.1300
     40 H40        -8.8304   -1.7699   60.4308 H       1  ZINC000533037883    0.1400
     41 H41       -13.9405   -2.2576   57.9389 H       1  ZINC000533037883    0.1900
     42 H42       -12.1612    1.5503   54.1275 H       1  ZINC000533037883    0.0700
     43 H43       -12.0277    0.5728   55.6120 H       1  ZINC000533037883    0.0800
     44 H44       -10.6811    2.7013   55.7058 H       1  ZINC000533037883    0.0800
     45 H45        -9.6866    1.2358   55.8888 H       1  ZINC000533037883    0.0700
     46 H46       -10.1066    2.7738   53.2855 H       1  ZINC000533037883    0.0700
     47 H47        -8.6502    2.8533   54.3054 H       1  ZINC000533037883    0.0700
     48 H48        -7.3593    3.4348   52.4334 H       1  ZINC000533037883    0.0800
     49 H49        -6.6290    2.2142   53.5311 H       1  ZINC000533037883    0.0800
     50 H50        -6.1021    2.6546   50.5409 H       1  ZINC000533037883    0.0600
     51 H51        -4.9086    2.4319   51.8558 H       1  ZINC000533037883    0.0900
     52 H52        -7.1341   -0.5519   52.3791 H       1  ZINC000533037883    0.0700
     53 H53        -7.6784   -0.2432   50.7078 H       1  ZINC000533037883    0.0700
     54 H54        -9.7020   -0.8347   52.4140 H       1  ZINC000533037883    0.1000
     55 H55       -10.6474    0.6307   52.0449 H       1  ZINC000533037883    0.0700
@<TRIPOS>BOND
     1     1     2    2
     2     2     3   am
     3     2    17   am
     4     3     4    1
     5     3    30    1
     6     4     5    1
     7     4    31    1
     8     4    32    1
     9     5     6    1
    10     5    33    1
    11     5    34    1
    12     6    16    1
    13     6     7    2
    14     7     8    1
    15     7    35    1
    16     8     9    1
    17     8    15    1
    18     9    14   ar
    19     9    10   ar
    20    10    11   ar
    21    10    36    1
    22    11    12   ar
    23    11    37    1
    24    12    13   ar
    25    12    38    1
    26    13    14   ar
    27    13    39    1
    28    14    40    1
    29    15    16    2
    30    16    41    1
    31    17    29    1
    32    17    18    1
    33    18    19    1
    34    18    42    1
    35    18    43    1
    36    19    20    1
    37    19    44    1
    38    19    45    1
    39    20    21    1
    40    20    46    1
    41    20    47    1
    42    21    22    1
    43    21    23    1
    44    21    29    1
    45    23    24    1
    46    23    28    1
    47    23    25    1
    48    25    26    1
    49    25    48    1
    50    25    49    1
    51    26    27    1
    52    26    50    1
    53    26    51    1
    54    27    28    1
    55    28    52    1
    56    28    53    1
    57    29    54    1
    58    29    55    1
@<TRIPOS>SUBSTRUCTURE
     1 ZINC000533037883        1 TEMP              0 ****  ****    0 ROOT


##########                                Name:    ZINC000637608314
##########                DOCK_Rotatable_Bonds:                   9
##########                         Heavy_Atoms:                  28
##########                    Molecular_Weight:             387.479
##########                DOCK_Rotatable_Bonds:                   9
##########                       Formal_Charge:           0.0499991
##########                     HBond_Acceptors:                   7
##########                        HBond_Donors:                   2
##########                         Heavy_Atoms:                  28
##########                          Grid_Score:          -32.487415
##########                     Grid_vdw_energy:          -31.058477
##########                      Grid_es_energy:           -1.428936
##########           Internal_energy_repulsive:           27.434313

@<TRIPOS>MOLECULE
ZINC000637608314
 57 59 1 0 0
SMALL
USER_CHARGES


@<TRIPOS>ATOM
      1 C1         -3.8534    2.3951   50.1453 C.3     1  ZINC000637608314   -0.1400
      2 C2         -4.4363    3.0852   51.3803 C.3     1  ZINC000637608314   -0.0400
      3 C3         -3.3902    3.1020   52.4966 C.3     1  ZINC000637608314   -0.1500
      4 C4         -4.8264    4.5214   51.0252 C.3     1  ZINC000637608314   -0.1500
      5 C5         -5.6566    2.3340   51.8465 C.2     1  ZINC000637608314    0.1900
      6 C6         -6.3807    2.8119   52.8854 C.2     1  ZINC000637608314   -0.2400
      7 C7         -7.5172    2.1180   53.3243 C.2     1  ZINC000637608314    0.0200
      8 C8         -7.8787    0.9639   52.6937 C.2     1  ZINC000637608314   -0.2400
      9 C9         -9.0961    0.1989   53.1450 C.3     1  ZINC000637608314    0.2100
     10 N10       -10.3031    0.8667   52.6519 N.am    1  ZINC000637608314   -0.7300
     11 C11       -11.2824    0.1458   52.0707 C.2     1  ZINC000637608314    0.7100
     12 O12       -11.1634   -1.0585   51.9542 O.2     1  ZINC000637608314   -0.5900
     13 N13       -12.3936    0.7600   51.6185 N.am    1  ZINC000637608314   -0.6200
     14 C14       -12.5363    2.2114   51.7572 C.3     1  ZINC000637608314    0.2000
     15 C15       -11.7188    2.9003   50.6950 C.2     1  ZINC000637608314   -0.0400
     16 C16       -10.6070    3.6273   50.9062 C.2     1  ZINC000637608314   -0.1900
     17 C17       -10.1699    4.0841   49.6415 C.2     1  ZINC000637608314   -0.2200
     18 C18       -11.0408    3.6088   48.7332 C.2     1  ZINC000637608314   -0.0300
     19 O19       -11.9736    2.8877   49.3764 O.3     1  ZINC000637608314   -0.1700
     20 C20       -13.4588   -0.0238   50.9883 C.3     1  ZINC000637608314    0.1300
     21 C21       -14.3238   -0.6720   52.0710 C.3     1  ZINC000637608314    0.0700
     22 H22       -14.9816   -1.4163   51.6222 H       1  ZINC000637608314    0.0900
     23 C23       -15.1649    0.4075   52.7854 C.3     1  ZINC000637608314   -0.1500
     24 C24       -15.1173   -0.0630   54.2647 C.3     1  ZINC000637608314   -0.1600
     25 C25       -13.6936   -0.6703   54.3345 C.3     1  ZINC000637608314    0.0500
     26 O26       -13.4874   -1.2927   53.0544 O.3     1  ZINC000637608314   -0.3800
     27 C27        -7.1043    0.4961   51.6182 C.2     1  ZINC000637608314    0.5300
     28 O28        -7.4169   -0.5351   51.0447 O.2     1  ZINC000637608314   -0.5400
     29 N29        -6.0213    1.1880   51.2164 N.am    1  ZINC000637608314   -0.6000
     30 H30        -3.5755    1.3719   50.3982 H       1  ZINC000637608314    0.0700
     31 H31        -4.5987    2.3832   49.3501 H       1  ZINC000637608314    0.0700
     32 H32        -2.9708    2.9385   49.8081 H       1  ZINC000637608314    0.0700
     33 H33        -2.5076    3.6454   52.1593 H       1  ZINC000637608314    0.0700
     34 H34        -3.8054    3.5938   53.3763 H       1  ZINC000637608314    0.0600
     35 H35        -3.1123    2.0788   52.7495 H       1  ZINC000637608314    0.0700
     36 H36        -5.5717    4.5095   50.2300 H       1  ZINC000637608314    0.0700
     37 H37        -5.2416    5.0131   51.9050 H       1  ZINC000637608314    0.0600
     38 H38        -3.9438    5.0649   50.6879 H       1  ZINC000637608314    0.0700
     39 H39        -6.0831    3.7268   53.3761 H       1  ZINC000637608314    0.1500
     40 H40        -8.0996    2.4931   54.1529 H       1  ZINC000637608314    0.1400
     41 H41        -9.0548   -0.8159   52.7492 H       1  ZINC000637608314    0.0800
     42 H42        -9.1197    0.1634   54.2342 H       1  ZINC000637608314    0.0800
     43 H43       -10.3976    1.8278   52.7438 H       1  ZINC000637608314    0.4000
     44 H44       -13.5850    2.4860   51.6437 H       1  ZINC000637608314    0.1200
     45 H45       -12.1849    2.5185   52.7422 H       1  ZINC000637608314    0.0900
     46 H46       -10.1384    3.8248   51.8589 H       1  ZINC000637608314    0.1500
     47 H47        -9.3033    4.6972   49.4429 H       1  ZINC000637608314    0.1500
     48 H48       -10.9954    3.7754   47.6671 H       1  ZINC000637608314    0.2000
     49 H49       -14.0764    0.6309   50.3734 H       1  ZINC000637608314    0.0800
     50 H50       -13.0175   -0.7998   50.3628 H       1  ZINC000637608314    0.1000
     51 H51       -14.7075    1.3909   52.6762 H       1  ZINC000637608314    0.0800
     52 H52       -16.1891    0.4112   52.4123 H       1  ZINC000637608314    0.0900
     53 H53       -15.2189    0.7799   54.9485 H       1  ZINC000637608314    0.0800
     54 H54       -15.8771   -0.8195   54.4610 H       1  ZINC000637608314    0.0800
     55 H55       -12.9551    0.1146   54.4977 H       1  ZINC000637608314    0.0600
     56 H56       -13.6381   -1.4143   55.1293 H       1  ZINC000637608314    0.0800
     57 H57        -5.4912    0.8599   50.4733 H       1  ZINC000637608314    0.4100
@<TRIPOS>BOND
     1     1     2    1
     2     1    30    1
     3     1    31    1
     4     1    32    1
     5     2     3    1
     6     2     4    1
     7     2     5    1
     8     3    33    1
     9     3    34    1
    10     3    35    1
    11     4    36    1
    12     4    37    1
    13     4    38    1
    14     5    29    1
    15     5     6    2
    16     6     7    1
    17     6    39    1
    18     7     8    2
    19     7    40    1
    20     8     9    1
    21     8    27    1
    22     9    10    1
    23     9    41    1
    24     9    42    1
    25    10    11   am
    26    10    43    1
    27    11    12    2
    28    11    13   am
    29    13    14    1
    30    13    20    1
    31    14    15    1
    32    14    44    1
    33    14    45    1
    34    15    19    1
    35    15    16    2
    36    16    17    1
    37    16    46    1
    38    17    18    2
    39    17    47    1
    40    18    19    1
    41    18    48    1
    42    20    21    1
    43    20    49    1
    44    20    50    1
    45    21    22    1
    46    21    26    1
    47    21    23    1
    48    23    24    1
    49    23    51    1
    50    23    52    1
    51    24    25    1
    52    24    53    1
    53    24    54    1
    54    25    26    1
    55    25    55    1
    56    25    56    1
    57    27    28    2
    58    27    29   am
    59    29    57    1
@<TRIPOS>SUBSTRUCTURE
     1 ZINC000637608314        1 TEMP              0 ****  ****    0 ROOT


##########                                Name:    ZINC000957079511
##########                DOCK_Rotatable_Bonds:                   8
##########                         Heavy_Atoms:                  25
##########                    Molecular_Weight:             362.453
##########                DOCK_Rotatable_Bonds:                   8
##########                       Formal_Charge:        -4.32134e-07
##########                     HBond_Acceptors:                   8
##########                        HBond_Donors:                   2
##########                         Heavy_Atoms:                  25
##########                          Grid_Score:          -32.468887
##########                     Grid_vdw_energy:          -27.862080
##########                      Grid_es_energy:           -4.606806
##########           Internal_energy_repulsive:           16.357906

@<TRIPOS>MOLECULE
ZINC000957079511
 47 49 1 0 0
SMALL
USER_CHARGES


@<TRIPOS>ATOM
      1 C1         -9.9731    1.3340   67.1222 C.3     1  ZINC000957079511   -0.0700
      2 C2         -9.2737    2.4015   66.3208 C.2     1  ZINC000957079511    0.0300
      3 C3         -8.5503    2.2049   65.2021 C.2     1  ZINC000957079511   -0.0200
      4 C4         -8.2896    0.8860   64.5211 C.3     1  ZINC000957079511   -0.0600
      5 C5         -9.2779    0.6958   63.3994 C.2     1  ZINC000957079511    0.5100
      6 O6        -10.3416    1.2779   63.4231 O.2     1  ZINC000957079511   -0.5200
      7 N7         -8.9797   -0.1212   62.3698 N.am    1  ZINC000957079511   -0.7200
      8 C8         -9.9411   -0.3074   61.2801 C.3     1  ZINC000957079511    0.1400
      9 H9        -10.9607   -0.1456   61.6297 H       1  ZINC000957079511    0.1100
     10 C10        -9.7896   -1.7099   60.6397 C.3     1  ZINC000957079511    0.0800
     11 N11       -10.3105   -1.5570   59.2691 N.am    1  ZINC000957079511   -0.6200
     12 C12       -10.8037   -2.5487   58.5011 C.2     1  ZINC000957079511    0.5400
     13 O13       -10.8426   -3.6835   58.9274 O.2     1  ZINC000957079511   -0.5100
     14 C14       -11.3066   -2.2476   57.1128 C.3     1  ZINC000957079511    0.0500
     15 O15       -12.6623   -1.8012   57.1836 O.3     1  ZINC000957079511   -0.2800
     16 C16       -13.6230   -2.7586   57.3097 C.2     1  ZINC000957079511    0.1200
     17 C17       -13.3607   -4.0626   57.1815 C.2     1  ZINC000957079511   -0.3300
     18 S18       -14.8394   -4.9872   57.4083 S.3     1  ZINC000957079511    0.1300
     19 C19       -15.7589   -3.5114   57.6723 C.2     1  ZINC000957079511   -0.1800
     20 C20       -14.9475   -2.4556   57.5867 C.2     1  ZINC000957079511   -0.1400
     21 C21       -10.2038   -0.1435   58.8790 C.3     1  ZINC000957079511    0.1100
     22 C22        -9.6102    0.6208   60.0817 C.3     1  ZINC000957079511   -0.1100
     23 H23        -8.5320    0.7368   59.9708 H       1  ZINC000957079511    0.0900
     24 C24       -10.2855    1.9841   60.2435 C.3     1  ZINC000957079511   -0.1400
     25 N25        -8.0978    3.4331   64.8019 N.pl3   1  ZINC000957079511   -0.5600
     26 C26        -8.5607    4.3383   65.6908 C.2     1  ZINC000957079511    0.2000
     27 N27        -9.2673    3.7148   66.5936 N.2     1  ZINC000957079511   -0.4900
     28 H28       -10.9862    1.2000   66.7429 H       1  ZINC000957079511    0.0700
     29 H29        -9.4252    0.3958   67.0341 H       1  ZINC000957079511    0.0600
     30 H30       -10.0140    1.6339   68.1693 H       1  ZINC000957079511    0.0700
     31 H31        -7.2769    0.8790   64.1181 H       1  ZINC000957079511    0.1000
     32 H32        -8.3990    0.0766   65.2428 H       1  ZINC000957079511    0.1200
     33 H33        -8.1283   -0.5858   62.3501 H       1  ZINC000957079511    0.4000
     34 H34        -8.7404   -2.0047   60.6161 H       1  ZINC000957079511    0.0800
     35 H35       -10.3785   -2.4437   61.1898 H       1  ZINC000957079511    0.0800
     36 H36       -10.6905   -1.4684   56.6643 H       1  ZINC000957079511    0.0900
     37 H37       -11.2526   -3.1496   56.5032 H       1  ZINC000957079511    0.0900
     38 H38       -12.3891   -4.4844   56.9704 H       1  ZINC000957079511    0.1700
     39 H39       -16.8184   -3.4669   57.8769 H       1  ZINC000957079511    0.1800
     40 H40       -15.2971   -1.4420   57.7157 H       1  ZINC000957079511    0.1500
     41 H41        -9.5454   -0.0459   58.0158 H       1  ZINC000957079511    0.0800
     42 H42       -11.1916    0.2509   58.6409 H       1  ZINC000957079511    0.0800
     43 H43       -11.3575    1.8442   60.3827 H       1  ZINC000957079511    0.0600
     44 H44        -9.8698    2.4946   61.1123 H       1  ZINC000957079511    0.0600
     45 H45       -10.1102    2.5845   59.3509 H       1  ZINC000957079511    0.0700
     46 H46        -7.5474    3.6188   64.0251 H       1  ZINC000957079511    0.4200
     47 H47        -8.3796    5.4026   65.6578 H       1  ZINC000957079511    0.2100
@<TRIPOS>BOND
     1     1     2    1
     2     1    28    1
     3     1    29    1
     4     1    30    1
     5     2    27    1
     6     2     3    2
     7     3     4    1
     8     3    25    1
     9     4     5    1
    10     4    31    1
    11     4    32    1
    12     5     6    2
    13     5     7   am
    14     7     8    1
    15     7    33    1
    16     8     9    1
    17     8    22    1
    18     8    10    1
    19    10    11    1
    20    10    34    1
    21    10    35    1
    22    11    12   am
    23    11    21    1
    24    12    13    2
    25    12    14    1
    26    14    15    1
    27    14    36    1
    28    14    37    1
    29    15    16    1
    30    16    20    1
    31    16    17    2
    32    17    18    1
    33    17    38    1
    34    18    19    1
    35    19    20    2
    36    19    39    1
    37    20    40    1
    38    21    22    1
    39    21    41    1
    40    21    42    1
    41    22    23    1
    42    22    24    1
    43    24    43    1
    44    24    44    1
    45    24    45    1
    46    25    26    1
    47    25    46    1
    48    26    27    2
    49    26    47    1
@<TRIPOS>SUBSTRUCTURE
     1 ZINC000957079511        1 TEMP              0 ****  ****    0 ROOT


##########                                Name:    ZINC000193795672
##########                DOCK_Rotatable_Bonds:                  10
##########                         Heavy_Atoms:                  23
##########                    Molecular_Weight:              332.47
##########                DOCK_Rotatable_Bonds:                  10
##########                       Formal_Charge:        -2.98023e-07
##########                     HBond_Acceptors:                   6
##########                        HBond_Donors:                   3
##########                         Heavy_Atoms:                  23
##########                          Grid_Score:          -32.437553
##########                     Grid_vdw_energy:          -31.177118
##########                      Grid_es_energy:           -1.260436
##########           Internal_energy_repulsive:            8.824929

@<TRIPOS>MOLECULE
ZINC000193795672
 47 48 1 0 0
SMALL
USER_CHARGES


@<TRIPOS>ATOM
      1 C1        -12.9770   -0.7507   52.8087 C.3     1  <0>        -0.1000
      2 C2        -11.5001   -0.4626   52.7239 C.ar    1  <0>        -0.2000
      3 C3        -11.0135    0.8010   53.0306 C.ar    1  <0>        -0.0300
      4 C4         -9.6510    1.0235   52.9403 C.ar    1  <0>        -0.2400
      5 C5         -8.8197   -0.0202   52.5476 C.ar    1  <0>         0.4000
      6 N6         -7.4488    0.1896   52.4528 N.pl3   1  <0>        -0.7300
      7 C7         -6.8635    0.6487   51.1907 C.3     1  <0>         0.1300
      8 C8         -6.5053    2.1318   51.3043 C.3     1  <0>        -0.1400
      9 C9         -5.7854    2.5815   50.0313 C.3     1  <0>         0.1400
     10 N10        -4.7946    3.6071   50.3671 N.am    1  <0>        -0.7500
     11 C11        -3.6624    3.2646   51.0130 C.2     1  <0>         0.7100
     12 O12        -3.4626    2.1041   51.3157 O.2     1  <0>        -0.5900
     13 N13        -2.7517    4.2084   51.3233 N.am    1  <0>        -0.7400
     14 C14        -1.5219    3.8363   52.0270 C.3     1  <0>         0.1700
     15 H15        -1.5741    2.7878   52.3202 H       1  <0>         0.0900
     16 C16        -0.3213    4.0482   51.1025 C.3     1  <0>        -0.1700
     17 C17        -1.3647    4.7077   53.2748 C.3     1  <0>        -0.0600
     18 C18        -1.8736    3.9574   54.4787 C.2     1  <0>        -0.1700
     19 C19        -3.0970    3.4403   54.6018 C.2     1  <0>        -0.1400
     20 C20        -3.3383    2.7922   55.8009 C.2     1  <0>        -0.1300
     21 C21        -2.3108    2.7830   56.6516 C.2     1  <0>        -0.2100
     22 S22        -0.9428    3.6231   55.9331 S.3     1  <0>         0.0900
     23 N23        -9.3224   -1.2119   52.2637 N.ar    1  <0>        -0.5400
     24 C24       -10.6169   -1.4541   52.3458 C.ar    1  <0>         0.1500
     25 H25       -13.2225   -1.0968   53.8128 H       1  <0>         0.0700
     26 H26       -13.5376    0.1582   52.5906 H       1  <0>         0.0600
     27 H27       -13.2389   -1.5219   52.0844 H       1  <0>         0.0700
     28 H28       -11.6834    1.5925   53.3325 H       1  <0>         0.1300
     29 H29        -9.2386    1.9946   53.1714 H       1  <0>         0.1300
     30 H30        -6.8797    0.0320   53.2224 H       1  <0>         0.4000
     31 H31        -5.9631    0.0728   50.9771 H       1  <0>         0.0700
     32 H32        -7.5837    0.5095   50.3844 H       1  <0>         0.0700
     33 H33        -7.4161    2.7168   51.4325 H       1  <0>         0.0800
     34 H34        -5.8523    2.2831   52.1638 H       1  <0>         0.0800
     35 H35        -5.2841    1.7272   49.5764 H       1  <0>         0.0700
     36 H36        -6.5108    2.9931   49.3297 H       1  <0>         0.0700
     37 H37        -4.9535    4.5328   50.1245 H       1  <0>         0.4000
     38 H38        -2.9107    5.1341   51.0808 H       1  <0>         0.3900
     39 H39        -0.2691    5.0967   50.8093 H       1  <0>         0.0600
     40 H40         0.5938    3.7714   51.6261 H       1  <0>         0.0700
     41 H41        -0.4332    3.4275   50.2136 H       1  <0>         0.0700
     42 H42        -0.3120    4.9519   53.4171 H       1  <0>         0.1000
     43 H43        -1.9374    5.6267   53.1506 H       1  <0>         0.0800
     44 H44        -3.8428    3.5213   53.8249 H       1  <0>         0.1400
     45 H45        -4.2866    2.3293   56.0304 H       1  <0>         0.1400
     46 H46        -2.3169    2.3264   57.6302 H       1  <0>         0.1600
     47 H47       -10.9911   -2.4384   52.1064 H       1  <0>         0.1500
@<TRIPOS>BOND
     1     1     2    1
     2     1    25    1
     3     1    26    1
     4     1    27    1
     5     2    24   ar
     6     2     3   ar
     7     3     4   ar
     8     3    28    1
     9     4     5   ar
    10     4    29    1
    11     5     6    1
    12     5    23   ar
    13     6     7    1
    14     6    30    1
    15     7     8    1
    16     7    31    1
    17     7    32    1
    18     8     9    1
    19     8    33    1
    20     8    34    1
    21     9    10    1
    22     9    35    1
    23     9    36    1
    24    10    11   am
    25    10    37    1
    26    11    12    2
    27    11    13   am
    28    13    14    1
    29    13    38    1
    30    14    15    1
    31    14    16    1
    32    14    17    1
    33    16    39    1
    34    16    40    1
    35    16    41    1
    36    17    18    1
    37    17    42    1
    38    17    43    1
    39    18    22    1
    40    18    19    2
    41    19    20    1
    42    19    44    1
    43    20    21    2
    44    20    45    1
    45    21    22    1
    46    21    46    1
    47    23    24   ar
    48    24    47    1
@<TRIPOS>SUBSTRUCTURE
     1 <0>         1 TEMP              0 ****  ****    0 ROOT


##########                                Name:    ZINC000967287417
##########                DOCK_Rotatable_Bonds:                   7
##########                         Heavy_Atoms:                  25
##########                    Molecular_Weight:             347.414
##########                DOCK_Rotatable_Bonds:                   7
##########                       Formal_Charge:          -0.0200002
##########                     HBond_Acceptors:                   7
##########                        HBond_Donors:                   1
##########                         Heavy_Atoms:                  25
##########                          Grid_Score:          -32.384109
##########                     Grid_vdw_energy:          -31.855206
##########                      Grid_es_energy:           -0.528905
##########           Internal_energy_repulsive:            9.493127

@<TRIPOS>MOLECULE
ZINC000967287417
 50 52 1 0 0
SMALL
USER_CHARGES


@<TRIPOS>ATOM
      1 C1         -5.4405    3.2087   50.0013 C.3     1  ZINC000967287417    0.0300
      2 O2         -6.4192    2.7037   50.9119 O.3     1  ZINC000967287417   -0.3900
      3 C3         -6.6093    1.2895   50.8353 C.3     1  ZINC000967287417    0.1400
      4 C4         -7.6561    0.8686   51.8343 C.2     1  ZINC000967287417    0.0100
      5 C5         -7.8439    1.4162   53.0553 C.2     1  ZINC000967287417   -0.1900
      6 C6         -8.9144    0.7335   53.6540 C.2     1  ZINC000967287417   -0.1200
      7 C7         -9.3307   -0.2078   52.7567 C.2     1  ZINC000967287417   -0.0700
      8 C8        -10.4297   -1.1588   52.9528 C.2     1  ZINC000967287417    0.6100
      9 O9        -10.7420   -1.9209   52.0569 O.2     1  ZINC000967287417   -0.5200
     10 N10       -11.0939   -1.1888   54.1251 N.am    1  ZINC000967287417   -0.7000
     11 C11       -12.1906   -2.1401   54.3217 C.3     1  ZINC000967287417    0.1600
     12 H12       -12.3146   -2.7432   53.4222 H       1  ZINC000967287417    0.1000
     13 C13       -11.8695   -3.0520   55.5080 C.3     1  ZINC000967287417    0.0400
     14 N14       -11.7220   -2.2419   56.7239 N.3     1  ZINC000967287417   -0.5300
     15 C15       -11.2777   -3.0667   57.8553 C.3     1  ZINC000967287417    0.1300
     16 C16       -10.6755   -2.1818   58.9161 C.2     1  ZINC000967287417    0.0200
     17 N17       -10.4763   -2.4872   60.1657 N.2     1  ZINC000967287417   -0.3500
     18 O18        -9.9754   -1.5700   60.7740 O.3     1  ZINC000967287417    0.1000
     19 C19        -9.7720   -0.5071   59.9831 C.2     1  ZINC000967287417   -0.0300
     20 C20        -9.1693    0.8144   60.3850 C.3     1  ZINC000967287417   -0.0800
     21 C21       -10.2093   -0.8574   58.7499 C.2     1  ZINC000967287417   -0.2400
     22 C22       -12.9683   -1.5349   57.0453 C.3     1  ZINC000967287417    0.0500
     23 C23       -13.3221   -0.5778   55.9049 C.3     1  ZINC000967287417   -0.1100
     24 C24       -13.4859   -1.3751   54.6070 C.3     1  ZINC000967287417   -0.1000
     25 H25       -14.3095   -2.0809   54.7145 H       1  ZINC000967287417    0.0900
     26 C26       -13.7815   -0.4165   53.4517 C.3     1  ZINC000967287417   -0.1500
     27 O27        -8.5573   -0.1060   51.6559 O.3     1  ZINC000967287417   -0.1600
     28 H28        -5.7427    2.9798   48.9793 H       1  ZINC000967287417    0.0500
     29 H29        -5.3553    4.2888   50.1216 H       1  ZINC000967287417    0.0900
     30 H30        -4.4770    2.7430   50.2082 H       1  ZINC000967287417    0.0500
     31 H31        -6.9366    1.0207   49.8310 H       1  ZINC000967287417    0.0900
     32 H32        -5.6698    0.7840   51.0587 H       1  ZINC000967287417    0.0700
     33 H33        -7.2770    2.2266   53.4891 H       1  ZINC000967287417    0.1600
     34 H34        -9.3285    0.9172   54.6344 H       1  ZINC000967287417    0.1600
     35 H35       -10.8457   -0.5805   54.8389 H       1  ZINC000967287417    0.4100
     36 H36       -12.6795   -3.7685   55.6450 H       1  ZINC000967287417    0.0500
     37 H37       -10.9402   -3.5875   55.3134 H       1  ZINC000967287417    0.0900
     38 H38       -12.1306   -3.6032   58.2709 H       1  ZINC000967287417    0.0600
     39 H39       -10.5305   -3.7823   57.5120 H       1  ZINC000967287417    0.0900
     40 H40        -8.9121    0.7894   61.4439 H       1  ZINC000967287417    0.0800
     41 H41        -8.2702    0.9976   59.7968 H       1  ZINC000967287417    0.0900
     42 H42        -9.8901    1.6121   60.2050 H       1  ZINC000967287417    0.0900
     43 H43       -10.2083   -0.2609   57.8496 H       1  ZINC000967287417    0.1700
     44 H44       -13.7731   -2.2585   57.1751 H       1  ZINC000967287417    0.0400
     45 H45       -12.8372   -0.9686   57.9674 H       1  ZINC000967287417    0.0800
     46 H46       -14.2555   -0.0647   56.1367 H       1  ZINC000967287417    0.0700
     47 H47       -12.5241    0.1546   55.7837 H       1  ZINC000967287417    0.0700
     48 H48       -12.9563    0.2874   53.3436 H       1  ZINC000967287417    0.0600
     49 H49       -13.8978   -0.9846   52.5288 H       1  ZINC000967287417    0.0600
     50 H50       -14.7009    0.1307   53.6599 H       1  ZINC000967287417    0.0600
@<TRIPOS>BOND
     1     1     2    1
     2     1    28    1
     3     1    29    1
     4     1    30    1
     5     2     3    1
     6     3     4    1
     7     3    31    1
     8     3    32    1
     9     4    27    1
    10     4     5    2
    11     5     6    1
    12     5    33    1
    13     6     7    2
    14     6    34    1
    15     7     8    1
    16     7    27    1
    17     8     9    2
    18     8    10   am
    19    10    11    1
    20    10    35    1
    21    11    12    1
    22    11    24    1
    23    11    13    1
    24    13    14    1
    25    13    36    1
    26    13    37    1
    27    14    15    1
    28    14    22    1
    29    15    16    1
    30    15    38    1
    31    15    39    1
    32    16    21    1
    33    16    17    2
    34    17    18    1
    35    18    19    1
    36    19    20    1
    37    19    21    2
    38    20    40    1
    39    20    41    1
    40    20    42    1
    41    21    43    1
    42    22    23    1
    43    22    44    1
    44    22    45    1
    45    23    24    1
    46    23    46    1
    47    23    47    1
    48    24    25    1
    49    24    26    1
    50    26    48    1
    51    26    49    1
    52    26    50    1
@<TRIPOS>SUBSTRUCTURE
     1 ZINC000967287417        1 TEMP              0 ****  ****    0 ROOT


##########                                Name:    ZINC001347442583
##########                DOCK_Rotatable_Bonds:                   9
##########                         Heavy_Atoms:                  27
##########                    Molecular_Weight:             370.492
##########                DOCK_Rotatable_Bonds:                   9
##########                       Formal_Charge:          -0.0400009
##########                     HBond_Acceptors:                   5
##########                        HBond_Donors:                   1
##########                         Heavy_Atoms:                  27
##########                          Grid_Score:          -32.383209
##########                     Grid_vdw_energy:          -31.578751
##########                      Grid_es_energy:           -0.804460
##########           Internal_energy_repulsive:           11.522349

@<TRIPOS>MOLECULE
ZINC001347442583
 57 60 1 0 0
SMALL
USER_CHARGES


@<TRIPOS>ATOM
      1 O1         -9.8963    3.1087   59.8308 O.2     1  ZINC001347442583   -0.5400
      2 C2         -9.3998    2.1459   59.2855 C.2     1  ZINC001347442583    0.5400
      3 C3         -8.3806    2.3413   58.1928 C.3     1  ZINC001347442583   -0.1400
      4 C4         -9.0660    2.2277   56.8296 C.3     1  ZINC001347442583   -0.1000
      5 C5         -8.0233    2.3787   55.7203 C.3     1  ZINC001347442583   -0.1100
      6 C6         -8.6872    2.1470   54.3613 C.3     1  ZINC001347442583   -0.0800
      7 C7         -7.6251    1.9563   53.3094 C.ar    1  ZINC001347442583   -0.0800
      8 C8         -7.8599    1.1206   52.2335 C.ar    1  ZINC001347442583   -0.1200
      9 C9         -6.8856    0.9458   51.2686 C.ar    1  ZINC001347442583   -0.1200
     10 C10        -5.6766    1.6068   51.3793 C.ar    1  ZINC001347442583   -0.1300
     11 C11        -5.4422    2.4433   52.4546 C.ar    1  ZINC001347442583   -0.1200
     12 C12        -6.4182    2.6215   53.4173 C.ar    1  ZINC001347442583   -0.1200
     13 N13        -9.7554    0.9011   59.6605 N.am    1  ZINC001347442583   -0.6300
     14 C14        -9.3005   -0.4420   59.1645 C.3     1  ZINC001347442583    0.1200
     15 H15        -8.5622   -0.4276   58.3629 H       1  ZINC001347442583    0.1200
     16 C16       -10.6645   -1.1075   58.8105 C.3     1  ZINC001347442583   -0.1300
     17 C17       -11.6376   -0.5136   59.8587 C.3     1  ZINC001347442583   -0.1300
     18 C18       -10.7241    0.4297   60.7076 C.3     1  ZINC001347442583    0.1200
     19 H19       -11.2422    1.2121   61.2620 H       1  ZINC001347442583    0.1200
     20 C20        -9.8384   -0.5261   61.5625 C.3     1  ZINC001347442583    0.1300
     21 H21       -10.4467   -1.3054   62.0216 H       1  ZINC001347442583    0.1100
     22 N22        -9.1070    0.2253   62.5857 N.am    1  ZINC001347442583   -0.7200
     23 C23        -9.7152    0.5572   63.7416 C.2     1  ZINC001347442583    0.5300
     24 O24       -10.8676    0.2326   63.9356 O.2     1  ZINC001347442583   -0.5300
     25 C25        -8.9632    1.3317   64.7933 C.3     1  ZINC001347442583   -0.1500
     26 H26        -8.3931    2.1433   64.3413 H       1  ZINC001347442583    0.1100
     27 C27        -9.9326    1.8747   65.8784 C.3     1  ZINC001347442583   -0.1400
     28 C28        -8.9896    1.9461   67.1059 C.3     1  ZINC001347442583    0.0500
     29 O29        -8.1265    0.8047   66.9826 O.3     1  ZINC001347442583   -0.3800
     30 C30        -8.0409    0.3994   65.6078 C.3     1  ZINC001347442583    0.0700
     31 C31        -8.8367   -1.1099   60.4940 C.3     1  ZINC001347442583   -0.1400
     32 H32        -7.9276    3.3280   58.2905 H       1  ZINC001347442583    0.0900
     33 H33        -7.6079    1.5770   58.2757 H       1  ZINC001347442583    0.0900
     34 H34        -9.5479    1.2536   56.7453 H       1  ZINC001347442583    0.0700
     35 H35        -9.8155    3.0132   56.7333 H       1  ZINC001347442583    0.0700
     36 H36        -7.6018    3.3834   55.7521 H       1  ZINC001347442583    0.0600
     37 H37        -7.2291    1.6465   55.8660 H       1  ZINC001347442583    0.0600
     38 H38        -9.3141    1.2567   54.4104 H       1  ZINC001347442583    0.0700
     39 H39        -9.3013    3.0103   54.1051 H       1  ZINC001347442583    0.0700
     40 H40        -8.8043    0.6041   52.1471 H       1  ZINC001347442583    0.1200
     41 H41        -7.0688    0.2922   50.4285 H       1  ZINC001347442583    0.1200
     42 H42        -4.9152    1.4697   50.6258 H       1  ZINC001347442583    0.1200
     43 H43        -4.4976    2.9596   52.5413 H       1  ZINC001347442583    0.1200
     44 H44        -6.2350    3.2750   54.2575 H       1  ZINC001347442583    0.1200
     45 H45       -10.9742   -0.8352   57.8015 H       1  ZINC001347442583    0.0700
     46 H46       -10.6020   -2.1906   58.9150 H       1  ZINC001347442583    0.0800
     47 H47       -12.4299    0.0530   59.3694 H       1  ZINC001347442583    0.0800
     48 H48       -12.0576   -1.3023   60.4829 H       1  ZINC001347442583    0.0800
     49 H49        -8.1849    0.4838   62.4310 H       1  ZINC001347442583    0.4000
     50 H50       -10.3063    2.8634   65.6121 H       1  ZINC001347442583    0.0900
     51 H51       -10.7542    1.1804   66.0541 H       1  ZINC001347442583    0.0900
     52 H52        -8.4059    2.8664   67.0814 H       1  ZINC001347442583    0.0700
     53 H53        -9.5656    1.8870   68.0294 H       1  ZINC001347442583    0.0900
     54 H54        -8.3780   -0.6320   65.5047 H       1  ZINC001347442583    0.0700
     55 H55        -7.0123    0.4902   65.2589 H       1  ZINC001347442583    0.0800
     56 H56        -8.9462   -2.1916   60.4157 H       1  ZINC001347442583    0.0900
     57 H57        -7.8098   -0.8441   60.7448 H       1  ZINC001347442583    0.0800
@<TRIPOS>BOND
     1     1     2    2
     2     2     3    1
     3     2    13   am
     4     3     4    1
     5     3    32    1
     6     3    33    1
     7     4     5    1
     8     4    34    1
     9     4    35    1
    10     5     6    1
    11     5    36    1
    12     5    37    1
    13     6     7    1
    14     6    38    1
    15     6    39    1
    16     7    12   ar
    17     7     8   ar
    18     8     9   ar
    19     8    40    1
    20     9    10   ar
    21     9    41    1
    22    10    11   ar
    23    10    42    1
    24    11    12   ar
    25    11    43    1
    26    12    44    1
    27    13    18    1
    28    13    14    1
    29    14    15    1
    30    14    31    1
    31    14    16    1
    32    16    17    1
    33    16    45    1
    34    16    46    1
    35    17    18    1
    36    17    47    1
    37    17    48    1
    38    18    19    1
    39    18    20    1
    40    20    21    1
    41    20    22    1
    42    20    31    1
    43    22    23   am
    44    22    49    1
    45    23    24    2
    46    23    25    1
    47    25    26    1
    48    25    30    1
    49    25    27    1
    50    27    28    1
    51    27    50    1
    52    27    51    1
    53    28    29    1
    54    28    52    1
    55    28    53    1
    56    29    30    1
    57    30    54    1
    58    30    55    1
    59    31    56    1
    60    31    57    1
@<TRIPOS>SUBSTRUCTURE
     1 ZINC001347442583        1 TEMP              0 ****  ****    0 ROOT


##########                                Name:    ZINC000151820600
##########                DOCK_Rotatable_Bonds:                  10
##########                         Heavy_Atoms:                  25
##########                    Molecular_Weight:             388.915
##########                DOCK_Rotatable_Bonds:                  10
##########                       Formal_Charge:           0.0499998
##########                     HBond_Acceptors:                   8
##########                        HBond_Donors:                   2
##########                         Heavy_Atoms:                  25
##########                          Grid_Score:          -32.368690
##########                     Grid_vdw_energy:          -31.287067
##########                      Grid_es_energy:           -1.081624
##########           Internal_energy_repulsive:           14.757986

@<TRIPOS>MOLECULE
ZINC000151820600
 50 50 1 0 0
SMALL
USER_CHARGES


@<TRIPOS>ATOM
      1 C1        -16.9981   -3.4365   59.5982 C.3     1  ZINC000151820600   -0.4900
      2 S2        -15.7240   -2.1483   59.5111 S.o     1  ZINC000151820600    1.2500
      3 O3        -14.7059   -2.5496   58.6046 O.2     1  ZINC000151820600   -0.8500
      4 C4        -15.0557   -2.1207   61.1972 C.3     1  ZINC000151820600   -0.4500
      5 C5        -13.9507   -1.0666   61.2906 C.3     1  ZINC000151820600   -0.1100
      6 C6        -12.6211   -1.6810   60.8482 C.3     1  ZINC000151820600    0.1200
      7 N7        -11.5227   -0.7833   61.2139 N.am    1  ZINC000151820600   -0.7200
      8 C8        -10.2519   -1.2323   61.1989 C.2     1  ZINC000151820600    0.5200
      9 O9        -10.0180   -2.3800   60.8839 O.2     1  ZINC000151820600   -0.5200
     10 C10        -9.1219   -0.3084   61.5733 C.3     1  ZINC000151820600    0.1900
     11 H11        -8.1758   -0.8454   61.5054 H       1  ZINC000151820600    0.1300
     12 N12        -9.1014    0.8345   60.6569 N.am    1  ZINC000151820600   -0.6900
     13 C13        -8.6744    0.6739   59.3887 C.2     1  ZINC000151820600    0.6600
     14 O14        -8.3050   -0.4185   59.0058 O.2     1  ZINC000151820600   -0.5600
     15 O15        -8.6571    1.7239   58.5461 O.3     1  ZINC000151820600   -0.3600
     16 C16        -9.9203    2.1019   57.9380 C.3     1  ZINC000151820600    0.1400
     17 C17       -10.8152    0.8673   57.8117 C.3     1  ZINC000151820600   -0.1800
     18 C18       -10.6146    3.1477   58.8126 C.3     1  ZINC000151820600   -0.1400
     19 C19        -9.6622    2.6888   56.5489 C.3     1  ZINC000151820600   -0.1800
     20 C20        -9.3208    0.1826   62.9841 C.ar    1  ZINC000151820600   -0.1000
     21 C21       -10.2255    1.1952   63.2423 C.ar    1  ZINC000151820600   -0.0900
     22 C22       -10.4089    1.6457   64.5365 C.ar    1  ZINC000151820600   -0.1000
     23 C23        -9.6873    1.0842   65.5727 C.ar    1  ZINC000151820600   -0.1000
     24 C24        -8.7814    0.0704   65.3149 C.ar    1  ZINC000151820600   -0.0300
     25 Cl25       -7.8750   -0.6359   66.6161 Cl      1  ZINC000151820600   -0.0600
     26 C26        -8.6026   -0.3838   64.0206 C.ar    1  ZINC000151820600   -0.0900
     27 H27       -16.5388   -4.3833   59.8823 H       1  ZINC000151820600    0.0800
     28 H28       -17.7460   -3.1582   60.3408 H       1  ZINC000151820600    0.1100
     29 H29       -17.4753   -3.5422   58.6239 H       1  ZINC000151820600    0.1100
     30 H30       -15.8522   -1.8752   61.8998 H       1  ZINC000151820600    0.1200
     31 H31       -14.6449   -3.1003   61.4414 H       1  ZINC000151820600    0.0900
     32 H32       -14.1955   -0.2251   60.6426 H       1  ZINC000151820600    0.0800
     33 H33       -13.8657   -0.7195   62.3204 H       1  ZINC000151820600    0.0900
     34 H34       -12.4835   -2.6433   61.3414 H       1  ZINC000151820600    0.0800
     35 H35       -12.6288   -1.8244   59.7677 H       1  ZINC000151820600    0.0700
     36 H36       -11.7098    0.1342   61.4669 H       1  ZINC000151820600    0.4000
     37 H37        -9.3952    1.7069   60.9629 H       1  ZINC000151820600    0.4200
     38 H38       -10.9990    0.4491   58.8014 H       1  ZINC000151820600    0.0600
     39 H39       -11.7634    1.1510   57.3553 H       1  ZINC000151820600    0.0700
     40 H40       -10.3205    0.1222   57.1886 H       1  ZINC000151820600    0.0900
     41 H41        -9.9771    4.0273   58.9026 H       1  ZINC000151820600    0.0700
     42 H42       -11.5629    3.4315   58.3562 H       1  ZINC000151820600    0.0800
     43 H43       -10.7985    2.7295   59.8023 H       1  ZINC000151820600    0.0700
     44 H44        -9.1675    1.9438   55.9257 H       1  ZINC000151820600    0.0900
     45 H45       -10.6104    2.9726   56.0924 H       1  ZINC000151820600    0.0700
     46 H46        -9.0246    3.5684   56.6388 H       1  ZINC000151820600    0.0600
     47 H47       -10.7891    1.6348   62.4327 H       1  ZINC000151820600    0.1300
     48 H48       -11.1159    2.4369   64.7377 H       1  ZINC000151820600    0.1400
     49 H49        -9.8301    1.4367   66.5835 H       1  ZINC000151820600    0.1400
     50 H50        -7.8957   -1.1750   63.8187 H       1  ZINC000151820600    0.1400
@<TRIPOS>BOND
     1     1     2    1
     2     1    27    1
     3     1    28    1
     4     1    29    1
     5     2     3    2
     6     2     4    1
     7     4     5    1
     8     4    30    1
     9     4    31    1
    10     5     6    1
    11     5    32    1
    12     5    33    1
    13     6     7    1
    14     6    34    1
    15     6    35    1
    16     7     8   am
    17     7    36    1
    18     8     9    2
    19     8    10    1
    20    10    11    1
    21    10    12    1
    22    10    20    1
    23    12    13   am
    24    12    37    1
    25    13    14    2
    26    13    15    1
    27    15    16    1
    28    16    17    1
    29    16    18    1
    30    16    19    1
    31    17    38    1
    32    17    39    1
    33    17    40    1
    34    18    41    1
    35    18    42    1
    36    18    43    1
    37    19    44    1
    38    19    45    1
    39    19    46    1
    40    20    26   ar
    41    20    21   ar
    42    21    22   ar
    43    21    47    1
    44    22    23   ar
    45    22    48    1
    46    23    24   ar
    47    23    49    1
    48    24    25    1
    49    24    26   ar
    50    26    50    1
@<TRIPOS>SUBSTRUCTURE
     1 ZINC000151820600        1 TEMP              0 ****  ****    0 ROOT


##########                                Name:    ZINC000182044395
##########                DOCK_Rotatable_Bonds:                   8
##########                         Heavy_Atoms:                  28
##########                    Molecular_Weight:             398.889
##########                DOCK_Rotatable_Bonds:                   8
##########                       Formal_Charge:          -0.0399999
##########                     HBond_Acceptors:                   6
##########                        HBond_Donors:                   2
##########                         Heavy_Atoms:                  28
##########                          Grid_Score:          -32.354988
##########                     Grid_vdw_energy:          -30.674316
##########                      Grid_es_energy:           -1.680670
##########           Internal_energy_repulsive:           18.584707

@<TRIPOS>MOLECULE
ZINC000182044395
 51 53 1 0 0
SMALL
USER_CHARGES


@<TRIPOS>ATOM
      1 C1         -2.3602    2.9477   56.3025 C.3     1  ZINC000182044395   -0.1800
      2 C2         -2.6631    4.0459   55.2810 C.3     1  ZINC000182044395    0.0800
      3 N3         -2.4927    3.5136   53.9268 N.pl3   1  ZINC000182044395   -0.4800
      4 C4         -3.5832    3.1530   53.2378 C.2     1  ZINC000182044395    0.2500
      5 C5         -3.5091    2.6435   51.9579 C.2     1  ZINC000182044395   -0.3500
      6 C6         -4.7311    2.2593   51.2341 C.2     1  ZINC000182044395    0.5900
      7 O7         -4.8388    2.5071   50.0481 O.2     1  ZINC000182044395   -0.5600
      8 N8         -5.7312    1.6330   51.8852 N.am    1  ZINC000182044395   -0.7200
      9 C9         -6.9480    1.2505   51.1644 C.3     1  ZINC000182044395    0.1100
     10 H10        -6.7762    1.3343   50.0914 H       1  ZINC000182044395    0.0900
     11 C11        -7.3134   -0.1942   51.5112 C.3     1  ZINC000182044395   -0.1600
     12 C12        -8.0946    2.1783   51.5714 C.3     1  ZINC000182044395    0.1100
     13 H13        -9.0443    1.6579   51.4477 H       1  ZINC000182044395    0.1100
     14 O14        -7.9356    2.5604   52.9391 O.3     1  ZINC000182044395   -0.5500
     15 C15        -8.0784    3.4271   50.6877 C.3     1  ZINC000182044395   -0.1100
     16 C16        -9.4871    3.7700   50.2767 C.ar    1  ZINC000182044395   -0.0800
     17 C17        -9.7553    4.1428   48.9728 C.ar    1  ZINC000182044395   -0.1000
     18 C18       -11.0474    4.4578   48.5959 C.ar    1  ZINC000182044395   -0.1200
     19 C19       -12.0715    4.3991   49.5226 C.ar    1  ZINC000182044395   -0.1200
     20 C20       -11.8025    4.0310   50.8276 C.ar    1  ZINC000182044395   -0.1200
     21 C21       -10.5110    3.7122   51.2036 C.ar    1  ZINC000182044395   -0.1200
     22 C22        -2.1874    2.4847   51.3311 C.2     1  ZINC000182044395    0.4400
     23 O23        -2.0686    2.0345   50.2050 O.2     1  ZINC000182044395   -0.4900
     24 C24        -1.0129    2.8987   52.1213 C.ar    1  ZINC000182044395   -0.1800
     25 C25         0.2782    2.7894   51.6058 C.ar    1  ZINC000182044395   -0.0200
     26 C26         1.3537    3.1800   52.3748 C.ar    1  ZINC000182044395   -0.0700
     27 Cl27        2.9641    3.0464   51.7404 Cl      1  ZINC000182044395   -0.0500
     28 C28         1.1540    3.6804   53.6546 C.ar    1  ZINC000182044395   -0.0500
     29 C29        -0.1164    3.7940   54.1753 C.ar    1  ZINC000182044395   -0.1600
     30 C30        -1.2170    3.4050   53.4162 C.ar    1  ZINC000182044395    0.1900
     31 H31        -1.3337    2.6045   56.1733 H       1  ZINC000182044395    0.0700
     32 H32        -2.4870    3.3437   57.3101 H       1  ZINC000182044395    0.0800
     33 H33        -3.0441    2.1126   56.1515 H       1  ZINC000182044395    0.0700
     34 H34        -1.9791    4.8811   55.4319 H       1  ZINC000182044395    0.1000
     35 H35        -3.6896    4.3890   55.4101 H       1  ZINC000182044395    0.1100
     36 H36        -4.5531    3.2653   53.6994 H       1  ZINC000182044395    0.1800
     37 H37        -5.6453    1.4354   52.8310 H       1  ZINC000182044395    0.4100
     38 H38        -6.4965   -0.8550   51.2213 H       1  ZINC000182044395    0.0600
     39 H39        -7.4852   -0.2780   52.5843 H       1  ZINC000182044395    0.0600
     40 H40        -8.2187   -0.4787   50.9750 H       1  ZINC000182044395    0.0600
     41 H41        -8.0934    1.8437   53.5687 H       1  ZINC000182044395    0.3700
     42 H42        -7.4770    3.2355   49.7990 H       1  ZINC000182044395    0.0800
     43 H43        -7.6492    4.2604   51.2441 H       1  ZINC000182044395    0.0800
     44 H44        -8.9553    4.1883   48.2487 H       1  ZINC000182044395    0.1200
     45 H45       -11.2569    4.7495   47.5773 H       1  ZINC000182044395    0.1200
     46 H46       -13.0810    4.6452   49.2281 H       1  ZINC000182044395    0.1200
     47 H47       -12.6019    3.9895   51.5527 H       1  ZINC000182044395    0.1200
     48 H48       -10.3014    3.4212   52.2223 H       1  ZINC000182044395    0.1200
     49 H49         0.4347    2.4010   50.6103 H       1  ZINC000182044395    0.1500
     50 H50         2.0037    3.9841   54.2480 H       1  ZINC000182044395    0.1500
     51 H51        -0.2586    4.1850   55.1719 H       1  ZINC000182044395    0.1500
@<TRIPOS>BOND
     1     1     2    1
     2     1    31    1
     3     1    32    1
     4     1    33    1
     5     2     3    1
     6     2    34    1
     7     2    35    1
     8     3    30    1
     9     3     4    1
    10     4     5    2
    11     4    36    1
    12     5     6    1
    13     5    22    1
    14     6     7    2
    15     6     8   am
    16     8     9    1
    17     8    37    1
    18     9    10    1
    19     9    11    1
    20     9    12    1
    21    11    38    1
    22    11    39    1
    23    11    40    1
    24    12    13    1
    25    12    14    1
    26    12    15    1
    27    14    41    1
    28    15    16    1
    29    15    42    1
    30    15    43    1
    31    16    21   ar
    32    16    17   ar
    33    17    18   ar
    34    17    44    1
    35    18    19   ar
    36    18    45    1
    37    19    20   ar
    38    19    46    1
    39    20    21   ar
    40    20    47    1
    41    21    48    1
    42    22    23    2
    43    22    24    1
    44    24    30   ar
    45    24    25   ar
    46    25    26   ar
    47    25    49    1
    48    26    27    1
    49    26    28   ar
    50    28    29   ar
    51    28    50    1
    52    29    30   ar
    53    29    51    1
@<TRIPOS>SUBSTRUCTURE
     1 ZINC000182044395        1 TEMP              0 ****  ****    0 ROOT


##########                                Name:    ZINC001124460178
##########                DOCK_Rotatable_Bonds:                  12
##########                         Heavy_Atoms:                  22
##########                    Molecular_Weight:             328.479
##########                DOCK_Rotatable_Bonds:                  12
##########                       Formal_Charge:          -0.0100003
##########                     HBond_Acceptors:                   7
##########                        HBond_Donors:                   2
##########                         Heavy_Atoms:                  22
##########                          Grid_Score:          -32.278557
##########                     Grid_vdw_energy:          -31.099894
##########                      Grid_es_energy:           -1.178665
##########           Internal_energy_repulsive:           19.942509

@<TRIPOS>MOLECULE
ZINC001124460178
 50 50 1 0 0
SMALL
USER_CHARGES


@<TRIPOS>ATOM
      1 C1          2.5723    0.7617   49.4554 C.3     1  ZINC001124460178   -0.0700
      2 C2          1.8033    1.3761   50.5966 C.2     1  ZINC001124460178    0.3100
      3 N3          2.4144    1.8186   51.6567 N.2     1  ZINC001124460178   -0.5000
      4 S4          1.1944    2.4189   52.6763 S.3     1  ZINC001124460178    0.1800
      5 C5         -0.0905    2.0318   51.5955 C.2     1  ZINC001124460178    0.3400
      6 N6         -1.4433    2.2512   51.7827 N.pl3   1  ZINC001124460178   -0.6600
      7 C7         -2.3206    2.4477   50.6260 C.3     1  ZINC001124460178    0.0900
      8 C8         -3.7249    2.8171   51.1080 C.3     1  ZINC001124460178    0.0800
      9 H9         -3.9933    2.1915   51.9593 H       1  ZINC001124460178    0.1200
     10 O10        -3.7477    4.1909   51.5006 O.3     1  ZINC001124460178   -0.5500
     11 C11        -4.7282    2.5939   49.9747 C.3     1  ZINC001124460178    0.0900
     12 N12        -6.0890    2.6081   50.5172 N.am    1  ZINC001124460178   -0.6100
     13 C13        -6.9494    3.7750   50.3066 C.3     1  ZINC001124460178    0.0800
     14 C14        -6.5492    1.5478   51.2102 C.2     1  ZINC001124460178    0.5100
     15 O15        -5.8364    0.5824   51.3858 O.2     1  ZINC001124460178   -0.5400
     16 C16        -7.9497    1.5617   51.7668 C.3     1  ZINC001124460178   -0.1400
     17 C17        -8.3024    0.1697   52.2948 C.3     1  ZINC001124460178   -0.1100
     18 C18        -9.6329    0.2320   53.0477 C.3     1  ZINC001124460178   -0.1200
     19 C19       -10.7872    0.0609   52.0582 C.3     1  ZINC001124460178   -0.1200
     20 C20       -12.0871   -0.1816   52.8279 C.3     1  ZINC001124460178   -0.1000
     21 C21       -12.1586   -1.6479   53.2588 C.3     1  ZINC001124460178   -0.1500
     22 C22       -12.1216    0.7161   54.0663 C.3     1  ZINC001124460178   -0.1500
     23 N23         0.4960    1.4868   50.5506 N.2     1  ZINC001124460178   -0.5800
     24 H24         2.8514    1.5397   48.7448 H       1  ZINC001124460178    0.0900
     25 H25         3.4719    0.2815   49.8403 H       1  ZINC001124460178    0.0900
     26 H26         1.9497    0.0196   48.9556 H       1  ZINC001124460178    0.0900
     27 H27        -1.8110    2.2751   52.6800 H       1  ZINC001124460178    0.4200
     28 H28        -1.9269    3.2513   50.0037 H       1  ZINC001124460178    0.0800
     29 H29        -2.3666    1.5270   50.0443 H       1  ZINC001124460178    0.0900
     30 H30        -3.0647    4.4279   52.1428 H       1  ZINC001124460178    0.3800
     31 H31        -4.6236    3.3878   49.2351 H       1  ZINC001124460178    0.0900
     32 H32        -4.5351    1.6304   49.5031 H       1  ZINC001124460178    0.1000
     33 H33        -7.5144    3.6477   49.3832 H       1  ZINC001124460178    0.0600
     34 H34        -7.6396    3.8734   51.1444 H       1  ZINC001124460178    0.0800
     35 H35        -6.3341    4.6719   50.2354 H       1  ZINC001124460178    0.0800
     36 H36        -8.0103    2.2849   52.5800 H       1  ZINC001124460178    0.0900
     37 H37        -8.6507    1.8402   50.9799 H       1  ZINC001124460178    0.0900
     38 H38        -8.3901   -0.5245   51.4590 H       1  ZINC001124460178    0.0700
     39 H39        -7.5183   -0.1722   52.9703 H       1  ZINC001124460178    0.0700
     40 H40        -9.6685   -0.5663   53.7891 H       1  ZINC001124460178    0.0600
     41 H41        -9.7227    1.1964   53.5476 H       1  ZINC001124460178    0.0600
     42 H42       -10.8853    0.9633   51.4548 H       1  ZINC001124460178    0.0600
     43 H43       -10.5855   -0.7906   51.4083 H       1  ZINC001124460178    0.0600
     44 H44       -12.9377    0.0506   52.1870 H       1  ZINC001124460178    0.0700
     45 H45       -11.3081   -1.8802   53.8998 H       1  ZINC001124460178    0.0500
     46 H46       -13.0847   -1.8208   53.8072 H       1  ZINC001124460178    0.0500
     47 H47       -12.1341   -2.2876   52.3767 H       1  ZINC001124460178    0.0500
     48 H48       -12.0706    1.7608   53.7593 H       1  ZINC001124460178    0.0600
     49 H49       -13.0477    0.5434   54.6147 H       1  ZINC001124460178    0.0500
     50 H50       -11.2711    0.4840   54.7072 H       1  ZINC001124460178    0.0500
@<TRIPOS>BOND
     1     1     2    1
     2     1    24    1
     3     1    25    1
     4     1    26    1
     5     2    23    1
     6     2     3    2
     7     3     4    1
     8     4     5    1
     9     5     6    1
    10     5    23    2
    11     6     7    1
    12     6    27    1
    13     7     8    1
    14     7    28    1
    15     7    29    1
    16     8     9    1
    17     8    10    1
    18     8    11    1
    19    10    30    1
    20    11    12    1
    21    11    31    1
    22    11    32    1
    23    12    13    1
    24    12    14   am
    25    13    33    1
    26    13    34    1
    27    13    35    1
    28    14    15    2
    29    14    16    1
    30    16    17    1
    31    16    36    1
    32    16    37    1
    33    17    18    1
    34    17    38    1
    35    17    39    1
    36    18    19    1
    37    18    40    1
    38    18    41    1
    39    19    20    1
    40    19    42    1
    41    19    43    1
    42    20    21    1
    43    20    22    1
    44    20    44    1
    45    21    45    1
    46    21    46    1
    47    21    47    1
    48    22    48    1
    49    22    49    1
    50    22    50    1
@<TRIPOS>SUBSTRUCTURE
     1 ZINC001124460178        1 TEMP              0 ****  ****    0 ROOT


##########                                Name:    ZINC001408567397
##########                DOCK_Rotatable_Bonds:                   9
##########                         Heavy_Atoms:                  24
##########                    Molecular_Weight:             336.434
##########                DOCK_Rotatable_Bonds:                   9
##########                       Formal_Charge:          -0.0199996
##########                     HBond_Acceptors:                   7
##########                        HBond_Donors:                   2
##########                         Heavy_Atoms:                  24
##########                          Grid_Score:          -32.260433
##########                     Grid_vdw_energy:          -31.872871
##########                      Grid_es_energy:           -0.387561
##########           Internal_energy_repulsive:           15.894774

@<TRIPOS>MOLECULE
ZINC001408567397
 52 53 1 0 0
SMALL
USER_CHARGES


@<TRIPOS>ATOM
      1 C1        -14.5637   -2.1787   61.5174 C.3     1  ZINC001408567397   -0.0800
      2 C2        -14.9471   -2.7617   60.1817 C.2     1  ZINC001408567397    0.0900
      3 N3        -15.8307   -3.7057   59.9818 N.2     1  ZINC001408567397   -0.2900
      4 N4        -15.8940   -3.9616   58.6060 N.pl3   1  ZINC001408567397   -0.4700
      5 C5        -15.0191   -3.1396   57.9898 C.2     1  ZINC001408567397    0.1100
      6 C6        -14.7562   -3.0719   56.5075 C.3     1  ZINC001408567397   -0.1000
      7 C7        -14.4242   -2.3829   58.9409 C.2     1  ZINC001408567397   -0.2200
      8 C8        -13.3769   -1.3252   58.7057 C.3     1  ZINC001408567397   -0.0600
      9 C9        -12.0192   -1.8750   59.0599 C.2     1  ZINC001408567397    0.5100
     10 O10       -11.7896   -3.0580   58.9234 O.2     1  ZINC001408567397   -0.5300
     11 N11       -11.0601   -1.0521   59.5285 N.am    1  ZINC001408567397   -0.7300
     12 C12        -9.7397   -1.5863   59.8712 C.3     1  ZINC001408567397    0.1100
     13 C13        -8.7337   -0.4376   59.9657 C.3     1  ZINC001408567397    0.1000
     14 N14        -9.1899    0.5300   60.9667 N.am    1  ZINC001408567397   -0.6200
     15 C15        -9.9939    1.6841   60.5567 C.3     1  ZINC001408567397    0.0700
     16 C16        -8.8701    0.3584   62.2647 C.2     1  ZINC001408567397    0.5100
     17 O17        -8.2033   -0.5961   62.6038 O.2     1  ZINC001408567397   -0.5300
     18 C18        -9.3409    1.3529   63.2944 C.3     1  ZINC001408567397   -0.1300
     19 C19        -9.1442    0.7687   64.6948 C.3     1  ZINC001408567397   -0.1100
     20 H20        -9.2579   -0.3147   64.6568 H       1  ZINC001408567397    0.0900
     21 C21        -7.7423    1.1187   65.2032 C.3     1  ZINC001408567397   -0.1200
     22 C22        -7.5850    0.5964   66.6345 C.3     1  ZINC001408567397   -0.1600
     23 C23        -8.6874    1.1950   67.5119 C.3     1  ZINC001408567397    0.0600
     24 O24        -9.9644    0.8579   66.9663 O.3     1  ZINC001408567397   -0.3800
     25 C25       -10.1874    1.3595   65.6468 C.3     1  ZINC001408567397    0.0600
     26 H26       -15.2111   -1.3314   61.7434 H       1  ZINC001408567397    0.0800
     27 H27       -14.6760   -2.9382   62.2911 H       1  ZINC001408567397    0.0700
     28 H28       -13.5266   -1.8446   61.4839 H       1  ZINC001408567397    0.0800
     29 H29       -16.4658   -4.6146   58.1728 H       1  ZINC001408567397    0.4400
     30 H30       -15.4295   -2.3460   56.0518 H       1  ZINC001408567397    0.0800
     31 H31       -13.7237   -2.7681   56.3351 H       1  ZINC001408567397    0.0900
     32 H32       -14.9252   -4.0529   56.0634 H       1  ZINC001408567397    0.0700
     33 H33       -13.3871   -1.0307   57.6564 H       1  ZINC001408567397    0.1000
     34 H34       -13.5910   -0.4569   59.3289 H       1  ZINC001408567397    0.1000
     35 H35       -11.2442   -0.1062   59.6390 H       1  ZINC001408567397    0.4000
     36 H36        -9.7939   -2.1017   60.8302 H       1  ZINC001408567397    0.0700
     37 H37        -9.4199   -2.2870   59.0999 H       1  ZINC001408567397    0.0700
     38 H38        -7.7599   -0.8305   60.2577 H       1  ZINC001408567397    0.0800
     39 H39        -8.6514    0.0540   58.9964 H       1  ZINC001408567397    0.0900
     40 H40       -11.0512    1.4221   60.5940 H       1  ZINC001408567397    0.0600
     41 H41        -9.8024    2.5185   61.2314 H       1  ZINC001408567397    0.0800
     42 H42        -9.7261    1.9705   59.5396 H       1  ZINC001408567397    0.0800
     43 H43        -8.7651    2.2735   63.2006 H       1  ZINC001408567397    0.1000
     44 H44       -10.3977    1.5675   63.1356 H       1  ZINC001408567397    0.1000
     45 H45        -6.9948    0.6531   64.5609 H       1  ZINC001408567397    0.0700
     46 H46        -7.6104    2.2006   65.1934 H       1  ZINC001408567397    0.0600
     47 H47        -7.6676   -0.4905   66.6367 H       1  ZINC001408567397    0.0700
     48 H48        -6.6100    0.8893   67.0241 H       1  ZINC001408567397    0.0700
     49 H49        -8.6063    0.7935   68.5220 H       1  ZINC001408567397    0.0900
     50 H50        -8.5797    2.2793   67.5418 H       1  ZINC001408567397    0.0500
     51 H51       -10.0994    2.4460   65.6513 H       1  ZINC001408567397    0.0400
     52 H52       -11.1863    1.0769   65.3145 H       1  ZINC001408567397    0.1100
@<TRIPOS>BOND
     1     1     2    1
     2     1    26    1
     3     1    27    1
     4     1    28    1
     5     2     7    1
     6     2     3    2
     7     3     4    1
     8     4     5    1
     9     4    29    1
    10     5     6    1
    11     5     7    2
    12     6    30    1
    13     6    31    1
    14     6    32    1
    15     7     8    1
    16     8     9    1
    17     8    33    1
    18     8    34    1
    19     9    10    2
    20     9    11   am
    21    11    12    1
    22    11    35    1
    23    12    13    1
    24    12    36    1
    25    12    37    1
    26    13    14    1
    27    13    38    1
    28    13    39    1
    29    14    15    1
    30    14    16   am
    31    15    40    1
    32    15    41    1
    33    15    42    1
    34    16    17    2
    35    16    18    1
    36    18    19    1
    37    18    43    1
    38    18    44    1
    39    19    20    1
    40    19    25    1
    41    19    21    1
    42    21    22    1
    43    21    45    1
    44    21    46    1
    45    22    23    1
    46    22    47    1
    47    22    48    1
    48    23    24    1
    49    23    49    1
    50    23    50    1
    51    24    25    1
    52    25    51    1
    53    25    52    1
@<TRIPOS>SUBSTRUCTURE
     1 ZINC001408567397        1 TEMP              0 ****  ****    0 ROOT


##########                                Name:    ZINC000558052810
##########                DOCK_Rotatable_Bonds:                   9
##########                         Heavy_Atoms:                  30
##########                    Molecular_Weight:             424.524
##########                DOCK_Rotatable_Bonds:                   9
##########                       Formal_Charge:          -0.0200002
##########                     HBond_Acceptors:                   8
##########                        HBond_Donors:                   1
##########                         Heavy_Atoms:                  30
##########                          Grid_Score:          -32.257549
##########                     Grid_vdw_energy:          -32.680645
##########                      Grid_es_energy:            0.423094
##########           Internal_energy_repulsive:           15.851315

@<TRIPOS>MOLECULE
ZINC000558052810
 54 56 1 0 0
SMALL
USER_CHARGES


@<TRIPOS>ATOM
      1 C1         -3.9171    4.0066   51.0154 C.3     1  ZINC000558052810   -0.1700
      2 C2         -4.5270    3.0457   49.9928 C.3     1  ZINC000558052810    0.1100
      3 N3         -5.7566    2.4667   50.5396 N.am    1  ZINC000558052810   -0.6100
      4 C4         -7.0597    2.8933   50.0236 C.3     1  ZINC000558052810    0.0700
      5 C5         -5.6889    1.5417   51.5174 C.2     1  ZINC000558052810    0.5600
      6 O6         -4.6078    1.1876   51.9454 O.2     1  ZINC000558052810   -0.5300
      7 C7         -6.9300    0.9573   52.0694 C.ar    1  ZINC000558052810   -0.1100
      8 C8         -7.4695   -0.2004   51.5065 C.ar    1  ZINC000558052810   -0.1100
      9 C9         -8.6282   -0.7439   52.0236 C.ar    1  ZINC000558052810   -0.1000
     10 C10        -9.2581   -0.1452   53.0983 C.ar    1  ZINC000558052810   -0.1300
     11 C11        -8.7292    1.0082   53.6656 C.ar    1  ZINC000558052810    0.1400
     12 N12        -9.3709    1.6106   54.7530 N.am    1  ZINC000558052810   -0.6600
     13 C13       -10.6525    2.0123   54.6410 C.2     1  ZINC000558052810    0.5600
     14 O14       -11.2511    1.8510   53.5947 O.2     1  ZINC000558052810   -0.4800
     15 C15       -11.3285    2.6468   55.7863 C.ar    1  ZINC000558052810   -0.1900
     16 C16       -11.9684    3.8829   55.6408 C.ar    1  ZINC000558052810   -0.0200
     17 C17       -12.5885    4.4365   56.7470 C.ar    1  ZINC000558052810   -0.1900
     18 C18       -12.5599    3.7609   57.9541 C.ar    1  ZINC000558052810    0.1500
     19 N19       -11.9516    2.5972   58.0721 N.ar    1  ZINC000558052810   -0.4900
     20 C20       -11.3475    2.0187   57.0446 C.ar    1  ZINC000558052810    0.1600
     21 S21       -10.5498    0.4623   57.2596 S.3     1  ZINC000558052810    0.0600
     22 C22       -11.9959   -0.6224   57.3495 C.3     1  ZINC000558052810   -0.0700
     23 C23       -11.5486   -2.0340   57.6287 C.2     1  ZINC000558052810   -0.2000
     24 C24       -11.2248   -2.5856   58.8227 C.2     1  ZINC000558052810   -0.0100
     25 C25       -11.2377   -1.9018   60.1656 C.3     1  ZINC000558052810   -0.0800
     26 O26       -10.8907   -3.8597   58.5741 O.3     1  ZINC000558052810    0.1000
     27 N27       -10.9775   -4.1203   57.3964 N.2     1  ZINC000558052810   -0.3600
     28 C28       -11.3757   -3.0911   56.7060 C.2     1  ZINC000558052810    0.0300
     29 C29       -11.5988   -3.0349   55.2166 C.3     1  ZINC000558052810   -0.0800
     30 C30        -7.5623    1.5580   53.1580 C.ar    1  ZINC000558052810   -0.0700
     31 H31        -4.6278    4.8035   51.2343 H       1  ZINC000558052810    0.0600
     32 H32        -3.6865    3.4634   51.9318 H       1  ZINC000558052810    0.0600
     33 H33        -3.0022    4.4374   50.6084 H       1  ZINC000558052810    0.0700
     34 H34        -4.7574    3.5889   49.0763 H       1  ZINC000558052810    0.0800
     35 H35        -3.8161    2.2489   49.7739 H       1  ZINC000558052810    0.0800
     36 H36        -7.3079    2.3100   49.1370 H       1  ZINC000558052810    0.0600
     37 H37        -7.8218    2.7364   50.7869 H       1  ZINC000558052810    0.0800
     38 H38        -7.0188    3.9509   49.7630 H       1  ZINC000558052810    0.0700
     39 H39        -6.9807   -0.6707   50.6662 H       1  ZINC000558052810    0.1400
     40 H40        -9.0441   -1.6397   51.5866 H       1  ZINC000558052810    0.1400
     41 H41       -10.1647   -0.5749   53.4982 H       1  ZINC000558052810    0.1300
     42 H42        -8.8934    1.7392   55.5874 H       1  ZINC000558052810    0.4100
     43 H43       -11.9775    4.3924   54.6886 H       1  ZINC000558052810    0.1400
     44 H44       -13.0910    5.3893   56.6687 H       1  ZINC000558052810    0.1500
     45 H45       -13.0447    4.1952   58.8160 H       1  ZINC000558052810    0.1700
     46 H46       -12.6541   -0.2847   58.1500 H       1  ZINC000558052810    0.1000
     47 H47       -12.5324   -0.5921   56.4010 H       1  ZINC000558052810    0.1000
     48 H48       -12.2195   -2.0198   60.6240 H       1  ZINC000558052810    0.0900
     49 H49       -10.4802   -2.3498   60.8086 H       1  ZINC000558052810    0.0900
     50 H50       -11.0227   -0.8412   60.0353 H       1  ZINC000558052810    0.0900
     51 H51       -12.6298   -3.3089   54.9929 H       1  ZINC000558052810    0.0800
     52 H52       -11.4057   -2.0237   54.8583 H       1  ZINC000558052810    0.0800
     53 H53       -10.9221   -3.7313   54.7212 H       1  ZINC000558052810    0.0800
     54 H54        -7.1496    2.4540   53.5976 H       1  ZINC000558052810    0.1500
@<TRIPOS>BOND
     1     1     2    1
     2     1    31    1
     3     1    32    1
     4     1    33    1
     5     2     3    1
     6     2    34    1
     7     2    35    1
     8     3     4    1
     9     3     5   am
    10     4    36    1
    11     4    37    1
    12     4    38    1
    13     5     6    2
    14     5     7    1
    15     7    30   ar
    16     7     8   ar
    17     8     9   ar
    18     8    39    1
    19     9    10   ar
    20     9    40    1
    21    10    11   ar
    22    10    41    1
    23    11    12    1
    24    11    30   ar
    25    12    13   am
    26    12    42    1
    27    13    14    2
    28    13    15    1
    29    15    20   ar
    30    15    16   ar
    31    16    17   ar
    32    16    43    1
    33    17    18   ar
    34    17    44    1
    35    18    19   ar
    36    18    45    1
    37    19    20   ar
    38    20    21    1
    39    21    22    1
    40    22    23    1
    41    22    46    1
    42    22    47    1
    43    23    28    1
    44    23    24    2
    45    24    25    1
    46    24    26    1
    47    25    48    1
    48    25    49    1
    49    25    50    1
    50    26    27    1
    51    27    28    2
    52    28    29    1
    53    29    51    1
    54    29    52    1
    55    29    53    1
    56    30    54    1
@<TRIPOS>SUBSTRUCTURE
     1 ZINC000558052810        1 TEMP              0 ****  ****    0 ROOT


##########                                Name:    ZINC001083519372
##########                DOCK_Rotatable_Bonds:                   7
##########                         Heavy_Atoms:                  27
##########                    Molecular_Weight:             370.411
##########                DOCK_Rotatable_Bonds:                   7
##########                       Formal_Charge:           0.0399996
##########                     HBond_Acceptors:                   9
##########                        HBond_Donors:                   2
##########                         Heavy_Atoms:                  27
##########                          Grid_Score:          -32.236649
##########                     Grid_vdw_energy:          -29.302195
##########                      Grid_es_energy:           -2.934455
##########           Internal_energy_repulsive:            8.096995

@<TRIPOS>MOLECULE
ZINC001083519372
 49 52 1 0 0
SMALL
USER_CHARGES


@<TRIPOS>ATOM
      1 C1         -9.4592    3.0483   54.4404 C.3     1  ZINC001083519372   -0.1500
      2 C2         -9.3230    1.9737   53.3600 C.3     1  ZINC001083519372   -0.0100
      3 C3        -10.6457    1.2169   53.2239 C.3     1  ZINC001083519372   -0.1500
      4 C4         -8.9789    2.6243   52.0449 C.2     1  ZINC001083519372   -0.0100
      5 C5         -7.7500    2.7635   51.5208 C.2     1  ZINC001083519372   -0.0100
      6 C6         -6.4597    2.2956   52.1431 C.3     1  ZINC001083519372    0.1300
      7 N7         -5.3540    3.1399   51.6713 N.3     1  ZINC001083519372   -0.5000
      8 C8         -4.1590    2.9865   52.5399 C.3     1  ZINC001083519372    0.0300
      9 C9         -3.0006    3.4859   51.6404 C.3     1  ZINC001083519372    0.1500
     10 H10        -2.9494    4.5747   51.6462 H       1  ZINC001083519372    0.1200
     11 N11        -1.7249    2.9066   52.0687 N.am    1  ZINC001083519372   -0.6900
     12 C12        -0.5670    3.3850   51.5720 C.2     1  ZINC001083519372    0.5600
     13 O13        -0.5809    4.2983   50.7695 O.2     1  ZINC001083519372   -0.5100
     14 C14         0.7173    2.8006   52.0019 C.2     1  ZINC001083519372    0.1400
     15 C15         1.2976    3.1839   53.1810 C.2     1  ZINC001083519372   -0.1500
     16 C16         2.5182    2.6104   53.5618 C.2     1  ZINC001083519372    0.1800
     17 N17         3.0997    1.7165   52.7986 N.2     1  ZINC001083519372   -0.4400
     18 C18         2.5491    1.3290   51.6435 C.2     1  ZINC001083519372    0.2500
     19 C19         2.9484    0.4203   50.6693 C.2     1  ZINC001083519372   -0.2500
     20 C20         1.9838    0.4187   49.6754 C.2     1  ZINC001083519372    0.1000
     21 N21         1.0346    1.2703   49.9973 N.2     1  ZINC001083519372   -0.3100
     22 N22         1.3515    1.8560   51.2276 N.pl3   1  ZINC001083519372   -0.3100
     23 C23        -3.4000    2.9645   50.2409 C.3     1  ZINC001083519372    0.0900
     24 H24        -3.1651    3.7078   49.4790 H       1  ZINC001083519372    0.0800
     25 O25        -2.7268    1.7360   49.9585 O.3     1  ZINC001083519372   -0.5600
     26 C26        -4.9213    2.7378   50.3153 C.3     1  ZINC001083519372    0.0100
     27 N27        -7.8786    3.3954   50.3408 N.2     1  ZINC001083519372   -0.4800
     28 C28        -9.1408    3.6422   50.1346 C.2     1  ZINC001083519372    0.1700
     29 O29        -9.8469    3.1708   51.1709 O.3     1  ZINC001083519372   -0.2000
     30 H30        -8.5169    3.5876   54.5374 H       1  ZINC001083519372    0.0600
     31 H31       -10.2497    3.7454   54.1620 H       1  ZINC001083519372    0.0600
     32 H32        -9.7080    2.5778   55.3916 H       1  ZINC001083519372    0.0700
     33 H33        -8.5326    1.2768   53.6382 H       1  ZINC001083519372    0.1000
     34 H34       -11.4362    1.9138   52.9455 H       1  ZINC001083519372    0.0600
     35 H35       -10.5487    0.4512   52.4541 H       1  ZINC001083519372    0.0600
     36 H36       -10.8946    0.7462   54.1751 H       1  ZINC001083519372    0.0700
     37 H37        -6.5331    2.3660   53.2284 H       1  ZINC001083519372    0.0900
     38 H38        -6.2734    1.2601   51.8580 H       1  ZINC001083519372    0.0600
     39 H39        -4.2491    3.6073   53.4313 H       1  ZINC001083519372    0.1000
     40 H40        -4.0122    1.9410   52.8111 H       1  ZINC001083519372    0.0600
     41 H41        -1.7137    2.1788   52.7099 H       1  ZINC001083519372    0.4300
     42 H42         0.8203    3.9202   53.8105 H       1  ZINC001083519372    0.1800
     43 H43         2.9836    2.9071   54.4903 H       1  ZINC001083519372    0.1900
     44 H44         3.8485   -0.1762   50.6849 H       1  ZINC001083519372    0.1700
     45 H45         2.0075   -0.1847   48.7800 H       1  ZINC001083519372    0.2000
     46 H46        -3.0123    1.3106   49.1383 H       1  ZINC001083519372    0.3900
     47 H47        -5.1483    1.6845   50.1503 H       1  ZINC001083519372    0.0700
     48 H48        -5.4251    3.3505   49.5678 H       1  ZINC001083519372    0.0900
     49 H49        -9.5509    4.1411   49.2689 H       1  ZINC001083519372    0.2500
@<TRIPOS>BOND
     1     1     2    1
     2     1    30    1
     3     1    31    1
     4     1    32    1
     5     2     3    1
     6     2     4    1
     7     2    33    1
     8     3    34    1
     9     3    35    1
    10     3    36    1
    11     4    29    1
    12     4     5    2
    13     5     6    1
    14     5    27    1
    15     6     7    1
    16     6    37    1
    17     6    38    1
    18     7    26    1
    19     7     8    1
    20     8     9    1
    21     8    39    1
    22     8    40    1
    23     9    10    1
    24     9    11    1
    25     9    23    1
    26    11    12   am
    27    11    41    1
    28    12    13    2
    29    12    14    1
    30    14    22    1
    31    14    15    2
    32    15    16    1
    33    15    42    1
    34    16    17    2
    35    16    43    1
    36    17    18    1
    37    18    22    1
    38    18    19    2
    39    19    20    1
    40    19    44    1
    41    20    21    2
    42    20    45    1
    43    21    22    1
    44    23    24    1
    45    23    25    1
    46    23    26    1
    47    25    46    1
    48    26    47    1
    49    26    48    1
    50    27    28    2
    51    28    29    1
    52    28    49    1
@<TRIPOS>SUBSTRUCTURE
     1 ZINC001083519372        1 TEMP              0 ****  ****    0 ROOT


##########                                Name:    ZINC000532153088
##########                DOCK_Rotatable_Bonds:                  11
##########                         Heavy_Atoms:                  29
##########                    Molecular_Weight:             402.484
##########                DOCK_Rotatable_Bonds:                  11
##########                       Formal_Charge:          -0.0200009
##########                     HBond_Acceptors:                   6
##########                        HBond_Donors:                   1
##########                         Heavy_Atoms:                  29
##########                          Grid_Score:          -32.220379
##########                     Grid_vdw_energy:          -32.174644
##########                      Grid_es_energy:           -0.045734
##########           Internal_energy_repulsive:           18.058115

@<TRIPOS>MOLECULE
ZINC000532153088
 57 59 1 0 0
SMALL
USER_CHARGES


@<TRIPOS>ATOM
      1 C1        -11.4927   -1.3819   56.8708 C.3     1  ZINC000532153088   -0.1800
      2 C2        -11.3837   -2.8854   56.6094 C.3     1  ZINC000532153088    0.0800
      3 C3        -11.7437   -3.6521   57.8835 C.3     1  ZINC000532153088   -0.1500
      4 O4        -12.2833   -3.2533   55.5618 O.3     1  ZINC000532153088   -0.3800
      5 C5        -11.8716   -2.8207   54.2635 C.3     1  ZINC000532153088    0.1000
      6 C6        -12.8673   -1.8249   53.7268 C.ar    1  ZINC000532153088   -0.0700
      7 C7        -14.1367   -1.7561   54.2690 C.ar    1  ZINC000532153088   -0.1000
      8 C8        -15.0501   -0.8424   53.7766 C.ar    1  ZINC000532153088   -0.1100
      9 C9        -14.6936    0.0025   52.7425 C.ar    1  ZINC000532153088   -0.1200
     10 C10       -13.4234   -0.0657   52.2007 C.ar    1  ZINC000532153088   -0.1000
     11 C11       -12.5089   -0.9762   52.6958 C.ar    1  ZINC000532153088   -0.1100
     12 C12       -11.1244   -1.0505   52.1054 C.3     1  ZINC000532153088    0.1600
     13 N13       -10.3370    0.0980   52.5605 N.am    1  ZINC000532153088   -0.7300
     14 C14        -8.9920    0.0669   52.4813 C.2     1  ZINC000532153088    0.5100
     15 O15        -8.4334   -0.9125   52.0347 O.2     1  ZINC000532153088   -0.5000
     16 C16        -8.1822    1.2492   52.9478 C.3     1  ZINC000532153088    0.0300
     17 N17        -8.1001    2.2428   51.8690 N.3     1  ZINC000532153088   -0.4800
     18 C18        -8.8841    3.4412   52.1963 C.3     1  ZINC000532153088    0.1000
     19 C19       -10.0453    3.5577   51.2429 C.ar    1  ZINC000532153088   -0.1300
     20 C20       -11.3238    3.2554   51.6716 C.ar    1  ZINC000532153088   -0.0600
     21 C21       -12.3900    3.3623   50.7984 C.ar    1  ZINC000532153088   -0.1700
     22 C22       -12.1781    3.7724   49.4931 C.ar    1  ZINC000532153088    0.1300
     23 F23       -13.2205    3.8772   48.6400 F       1  ZINC000532153088   -0.1300
     24 C24       -10.8978    4.0755   49.0626 C.ar    1  ZINC000532153088   -0.2000
     25 C25        -9.8317    3.9733   49.9392 C.ar    1  ZINC000532153088    0.1600
     26 F26        -8.5817    4.2688   49.5205 F       1  ZINC000532153088   -0.1100
     27 C27        -6.7027    2.5909   51.5790 C.3     1  ZINC000532153088    0.0200
     28 C28        -5.7752    1.4646   51.1186 C.3     1  ZINC000532153088   -0.2200
     29 C29        -6.2461    2.5239   50.1202 C.3     1  ZINC000532153088   -0.1700
     30 H30       -10.8065   -1.1013   57.6698 H       1  ZINC000532153088    0.0700
     31 H31       -11.2362   -0.8358   55.9630 H       1  ZINC000532153088    0.0600
     32 H32       -12.5132   -1.1375   57.1657 H       1  ZINC000532153088    0.0700
     33 H33       -10.3631   -3.1299   56.3144 H       1  ZINC000532153088    0.0600
     34 H34       -12.7642   -3.4077   58.1785 H       1  ZINC000532153088    0.0600
     35 H35       -11.6660   -4.7232   57.6973 H       1  ZINC000532153088    0.0600
     36 H36       -11.0575   -3.3715   58.6825 H       1  ZINC000532153088    0.0700
     37 H37       -10.8896   -2.3525   54.3309 H       1  ZINC000532153088    0.0600
     38 H38       -11.8195   -3.6793   53.5940 H       1  ZINC000532153088    0.0600
     39 H39       -14.4152   -2.4162   55.0771 H       1  ZINC000532153088    0.1300
     40 H40       -16.0423   -0.7891   54.1998 H       1  ZINC000532153088    0.1200
     41 H41       -15.4073    0.7158   52.3574 H       1  ZINC000532153088    0.1300
     42 H42       -13.1449    0.5942   51.3924 H       1  ZINC000532153088    0.1300
     43 H43       -10.6410   -1.9729   52.4275 H       1  ZINC000532153088    0.0800
     44 H44       -11.1920   -1.0365   51.0176 H       1  ZINC000532153088    0.0800
     45 H45       -10.7839    0.8809   52.9188 H       1  ZINC000532153088    0.4000
     46 H46        -8.6613    1.6970   53.8185 H       1  ZINC000532153088    0.0700
     47 H47        -7.1783    0.9192   53.2150 H       1  ZINC000532153088    0.1100
     48 H48        -9.2584    3.3630   53.2170 H       1  ZINC000532153088    0.0900
     49 H49        -8.2515    4.3245   52.1080 H       1  ZINC000532153088    0.0500
     50 H50       -11.4900    2.9350   52.6895 H       1  ZINC000532153088    0.1400
     51 H51       -13.3888    3.1254   51.1343 H       1  ZINC000532153088    0.1400
     52 H52       -10.7315    4.3956   48.0446 H       1  ZINC000532153088    0.1500
     53 H53        -6.2733    3.3726   52.2053 H       1  ZINC000532153088    0.1200
     54 H54        -4.7350    1.5051   51.4422 H       1  ZINC000532153088    0.1000
     55 H55        -6.2018    0.4653   51.0309 H       1  ZINC000532153088    0.1000
     56 H56        -6.9827    2.2216   49.3757 H       1  ZINC000532153088    0.1000
     57 H57        -5.5159    3.2614   49.7870 H       1  ZINC000532153088    0.1000
@<TRIPOS>BOND
     1     1     2    1
     2     1    30    1
     3     1    31    1
     4     1    32    1
     5     2     3    1
     6     2     4    1
     7     2    33    1
     8     3    34    1
     9     3    35    1
    10     3    36    1
    11     4     5    1
    12     5     6    1
    13     5    37    1
    14     5    38    1
    15     6    11   ar
    16     6     7   ar
    17     7     8   ar
    18     7    39    1
    19     8     9   ar
    20     8    40    1
    21     9    10   ar
    22     9    41    1
    23    10    11   ar
    24    10    42    1
    25    11    12    1
    26    12    13    1
    27    12    43    1
    28    12    44    1
    29    13    14   am
    30    13    45    1
    31    14    15    2
    32    14    16    1
    33    16    17    1
    34    16    46    1
    35    16    47    1
    36    17    18    1
    37    17    27    1
    38    18    19    1
    39    18    48    1
    40    18    49    1
    41    19    25   ar
    42    19    20   ar
    43    20    21   ar
    44    20    50    1
    45    21    22   ar
    46    21    51    1
    47    22    23    1
    48    22    24   ar
    49    24    25   ar
    50    24    52    1
    51    25    26    1
    52    27    29    1
    53    27    28    1
    54    27    53    1
    55    28    29    1
    56    28    54    1
    57    28    55    1
    58    29    56    1
    59    29    57    1
@<TRIPOS>SUBSTRUCTURE
     1 ZINC000532153088        1 TEMP              0 ****  ****    0 ROOT


##########                                Name:    ZINC000469459940
##########                DOCK_Rotatable_Bonds:                   7
##########                         Heavy_Atoms:                  24
##########                    Molecular_Weight:             414.295
##########                DOCK_Rotatable_Bonds:                   7
##########                       Formal_Charge:          -0.0200002
##########                     HBond_Acceptors:                   6
##########                        HBond_Donors:                   1
##########                         Heavy_Atoms:                  24
##########                          Grid_Score:          -32.205437
##########                     Grid_vdw_energy:          -30.883827
##########                      Grid_es_energy:           -1.321608
##########           Internal_energy_repulsive:            7.868371

@<TRIPOS>MOLECULE
ZINC000469459940
 41 42 1 0 0
SMALL
USER_CHARGES


@<TRIPOS>ATOM
      1 C1          2.4662   -0.2419   50.9025 C.3     1  ZINC000469459940   -0.1600
      2 C2          2.4088    0.9369   49.9288 C.3     1  ZINC000469459940   -0.1200
      3 C3          1.7326    2.1285   50.6097 C.3     1  ZINC000469459940   -0.1200
      4 C4          0.2569    1.8065   50.8537 C.3     1  ZINC000469459940   -0.6000
      5 S5         -0.6040    3.3022   51.4124 S.o2    1  ZINC000469459940    2.4900
      6 O6         -0.3529    3.5365   52.7912 O.2     1  ZINC000469459940   -0.9300
      7 O7         -0.4664    4.3436   50.4555 O.2     1  ZINC000469459940   -0.9300
      8 C8         -2.3126    2.8761   51.3482 C.ar    1  ZINC000469459940   -0.6400
      9 C9         -3.0303    2.7293   52.5219 C.ar    1  ZINC000469459940   -0.0300
     10 C10        -4.3681    2.3954   52.4788 C.ar    1  ZINC000469459940   -0.0800
     11 C11        -4.9976    2.2060   51.2473 C.ar    1  ZINC000469459940   -0.0900
     12 C12        -6.4309    1.8486   51.1933 C.2     1  ZINC000469459940    0.5600
     13 O13        -7.0372    1.9250   50.1424 O.2     1  ZINC000469459940   -0.5000
     14 N14        -7.0655    1.4383   52.3093 N.am    1  ZINC000469459940   -0.6700
     15 C15        -8.4219    1.1001   52.2581 C.ar    1  ZINC000469459940    0.1900
     16 C16        -9.3862    2.0984   52.2141 C.ar    1  ZINC000469459940   -0.1500
     17 C17       -10.7254    1.7630   52.1638 C.ar    1  ZINC000469459940   -0.0400
     18 C18       -11.1074    0.4338   52.1574 C.ar    1  ZINC000469459940   -0.1500
     19 Br19      -12.9417   -0.0209   52.0883 Br      1  ZINC000469459940   -0.0200
     20 C20       -10.1479   -0.5655   52.2012 C.ar    1  ZINC000469459940    0.1500
     21 F21       -10.5235   -1.8632   52.1949 F       1  ZINC000469459940   -0.1200
     22 C22        -8.8059   -0.2344   52.2456 C.ar    1  ZINC000469459940   -0.1500
     23 C23        -4.2677    2.3561   50.0669 C.ar    1  ZINC000469459940   -0.1100
     24 C24        -2.9317    2.6953   50.1241 C.ar    1  ZINC000469459940   -0.0300
     25 H25         3.0373    0.0440   51.7859 H       1  ZINC000469459940    0.0600
     26 H26         1.4541   -0.5185   51.1981 H       1  ZINC000469459940    0.0600
     27 H27         2.9479   -1.0908   50.4175 H       1  ZINC000469459940    0.0600
     28 H28         3.4208    1.2136   49.6332 H       1  ZINC000469459940    0.0700
     29 H29         1.8376    0.6509   49.0456 H       1  ZINC000469459940    0.0700
     30 H30         2.2230    2.3290   51.5624 H       1  ZINC000469459940    0.0800
     31 H31         1.8117    3.0064   49.9685 H       1  ZINC000469459940    0.0800
     32 H32        -0.1954    1.4514   49.9278 H       1  ZINC000469459940    0.1400
     33 H33         0.1751    1.0335   51.6178 H       1  ZINC000469459940    0.1400
     34 H34        -2.5421    2.8761   53.4740 H       1  ZINC000469459940    0.1500
     35 H35        -4.9271    2.2804   53.3956 H       1  ZINC000469459940    0.1500
     36 H36        -6.5818    1.3774   53.1478 H       1  ZINC000469459940    0.4200
     37 H37        -9.0894    3.1368   52.2197 H       1  ZINC000469459940    0.1500
     38 H38       -11.4750    2.5397   52.1295 H       1  ZINC000469459940    0.1500
     39 H39        -8.0578   -1.0127   52.2796 H       1  ZINC000469459940    0.1600
     40 H40        -4.7487    2.2106   49.1110 H       1  ZINC000469459940    0.1400
     41 H41        -2.3658    2.8117   49.2117 H       1  ZINC000469459940    0.1500
@<TRIPOS>BOND
     1     1     2    1
     2     1    25    1
     3     1    26    1
     4     1    27    1
     5     2     3    1
     6     2    28    1
     7     2    29    1
     8     3     4    1
     9     3    30    1
    10     3    31    1
    11     4     5    1
    12     4    32    1
    13     4    33    1
    14     5     6    2
    15     5     7    2
    16     5     8    1
    17     8    24   ar
    18     8     9   ar
    19     9    10   ar
    20     9    34    1
    21    10    11   ar
    22    10    35    1
    23    11    12    1
    24    11    23   ar
    25    12    13    2
    26    12    14   am
    27    14    15    1
    28    14    36    1
    29    15    22   ar
    30    15    16   ar
    31    16    17   ar
    32    16    37    1
    33    17    18   ar
    34    17    38    1
    35    18    19    1
    36    18    20   ar
    37    20    21    1
    38    20    22   ar
    39    22    39    1
    40    23    24   ar
    41    23    40    1
    42    24    41    1
@<TRIPOS>SUBSTRUCTURE
     1 ZINC000469459940        1 TEMP              0 ****  ****    0 ROOT


##########                                Name:    ZINC000654382142
##########                DOCK_Rotatable_Bonds:                  14
##########                         Heavy_Atoms:                  24
##########                    Molecular_Weight:             379.401
##########                DOCK_Rotatable_Bonds:                  14
##########                       Formal_Charge:          0.00999933
##########                     HBond_Acceptors:                  12
##########                        HBond_Donors:                   2
##########                         Heavy_Atoms:                  24
##########                          Grid_Score:          -32.181175
##########                     Grid_vdw_energy:          -30.975710
##########                      Grid_es_energy:           -1.205464
##########           Internal_energy_repulsive:           20.521326

@<TRIPOS>MOLECULE
ZINC000654382142
 48 47 1 0 0
SMALL
USER_CHARGES


@<TRIPOS>ATOM
      1 C1         -5.8340    3.2193   50.2678 C.3     1  ZINC000654382142    0.0300
      2 O2         -6.0461    1.8294   50.0117 O.3     1  ZINC000654382142   -0.3700
      3 C3         -7.1978    1.2879   50.6615 C.3     1  ZINC000654382142    0.0400
      4 C4         -6.8165    0.8175   52.0666 C.3     1  ZINC000654382142    0.1400
      5 N5         -8.0153    0.7681   52.9072 N.am    1  ZINC000654382142   -0.6100
      6 C6         -8.1962    1.7459   53.9830 C.3     1  ZINC000654382142    0.0800
      7 C7         -8.3455    3.1446   53.3812 C.3     1  ZINC000654382142    0.0500
      8 H8         -7.7079    3.2316   52.5014 H       1  ZINC000654382142    0.1400
      9 O9         -7.9589    4.1230   54.3484 O.3     1  ZINC000654382142   -0.5200
     10 C10        -9.8038    3.3738   52.9788 C.3     1  ZINC000654382142    0.4200
     11 F11        -9.9486    4.6679   52.4672 F       1  ZINC000654382142   -0.1800
     12 F12       -10.1696    2.4423   52.0012 F       1  ZINC000654382142   -0.1700
     13 F13       -10.6264    3.2208   54.0999 F       1  ZINC000654382142   -0.1800
     14 C14        -8.9516   -0.1767   52.6909 C.2     1  ZINC000654382142    0.7100
     15 O15        -8.8007   -0.9892   51.7989 O.2     1  ZINC000654382142   -0.5600
     16 N16       -10.0552   -0.2211   53.4632 N.am    1  ZINC000654382142   -0.7500
     17 C17       -11.0739   -1.2472   53.2269 C.3     1  ZINC000654382142    0.1400
     18 C18       -11.7630   -1.5954   54.5478 C.3     1  ZINC000654382142   -0.1600
     19 C19       -12.1273   -3.0814   54.5567 C.3     1  ZINC000654382142    0.1200
     20 N20       -12.5181   -3.4802   55.9111 N.am    1  ZINC000654382142   -1.0000
     21 C21       -11.5865   -3.2958   57.0266 C.3     1  ZINC000654382142    0.0900
     22 S22       -14.0129   -4.1397   56.1812 S.o2    1  ZINC000654382142    2.6100
     23 C23       -15.1774   -2.8562   55.6452 C.3     1  ZINC000654382142   -0.6800
     24 O24       -14.0659   -5.2580   55.3060 O.2     1  ZINC000654382142   -0.9500
     25 O25       -14.0718   -4.3091   57.5908 O.2     1  ZINC000654382142   -0.9500
     26 H26        -4.9413    3.5540   49.7394 H       1  ZINC000654382142    0.0900
     27 H27        -6.6964    3.7884   49.9209 H       1  ZINC000654382142    0.0400
     28 H28        -5.7024    3.3754   51.3385 H       1  ZINC000654382142    0.0400
     29 H29        -7.9694    2.0545   50.7320 H       1  ZINC000654382142    0.0500
     30 H30        -7.5762    0.4432   50.0858 H       1  ZINC000654382142    0.0600
     31 H31        -6.3720   -0.1761   52.0089 H       1  ZINC000654382142    0.0900
     32 H32        -6.0973    1.5126   52.4998 H       1  ZINC000654382142    0.1000
     33 H33        -9.0919    1.4979   54.5525 H       1  ZINC000654382142    0.1000
     34 H34        -7.3288    1.7249   54.6428 H       1  ZINC000654382142    0.1000
     35 H35        -7.9782    5.0316   54.0181 H       1  ZINC000654382142    0.3900
     36 H36       -10.1750    0.4262   54.1755 H       1  ZINC000654382142    0.3900
     37 H37       -11.8128   -0.8696   52.5200 H       1  ZINC000654382142    0.0700
     38 H38       -10.6019   -2.1401   52.8168 H       1  ZINC000654382142    0.0700
     39 H39       -11.0885   -1.3817   55.3768 H       1  ZINC000654382142    0.0700
     40 H40       -12.6690   -0.9987   54.6533 H       1  ZINC000654382142    0.0800
     41 H41       -12.9578   -3.2561   53.8726 H       1  ZINC000654382142    0.0900
     42 H42       -11.2655   -3.6686   54.2393 H       1  ZINC000654382142    0.1000
     43 H43       -11.7395   -2.3113   57.4688 H       1  ZINC000654382142    0.0600
     44 H44       -11.7642   -4.0639   57.7792 H       1  ZINC000654382142    0.0700
     45 H45       -10.5624   -3.3748   56.6615 H       1  ZINC000654382142    0.0700
     46 H46       -15.0145   -2.6355   54.5903 H       1  ZINC000654382142    0.1300
     47 H47       -16.1986   -3.2090   55.7891 H       1  ZINC000654382142    0.1300
     48 H48       -15.0187   -1.9528   56.2341 H       1  ZINC000654382142    0.1300
@<TRIPOS>BOND
     1     1     2    1
     2     1    26    1
     3     1    27    1
     4     1    28    1
     5     2     3    1
     6     3     4    1
     7     3    29    1
     8     3    30    1
     9     4     5    1
    10     4    31    1
    11     4    32    1
    12     5     6    1
    13     5    14   am
    14     6     7    1
    15     6    33    1
    16     6    34    1
    17     7     8    1
    18     7     9    1
    19     7    10    1
    20     9    35    1
    21    10    11    1
    22    10    12    1
    23    10    13    1
    24    14    15    2
    25    14    16   am
    26    16    17    1
    27    16    36    1
    28    17    18    1
    29    17    37    1
    30    17    38    1
    31    18    19    1
    32    18    39    1
    33    18    40    1
    34    19    20    1
    35    19    41    1
    36    19    42    1
    37    20    21    1
    38    20    22   am
    39    21    43    1
    40    21    44    1
    41    21    45    1
    42    22    23    1
    43    22    24    2
    44    22    25    2
    45    23    46    1
    46    23    47    1
    47    23    48    1
@<TRIPOS>SUBSTRUCTURE
     1 ZINC000654382142        1 TEMP              0 ****  ****    0 ROOT


##########                                Name:    ZINC000451019064
##########                DOCK_Rotatable_Bonds:                   8
##########                         Heavy_Atoms:                  23
##########                    Molecular_Weight:             346.534
##########                DOCK_Rotatable_Bonds:                   8
##########                       Formal_Charge:          -0.0200008
##########                     HBond_Acceptors:                   6
##########                        HBond_Donors:                   1
##########                         Heavy_Atoms:                  23
##########                          Grid_Score:          -32.083626
##########                     Grid_vdw_energy:          -28.470041
##########                      Grid_es_energy:           -3.613583
##########           Internal_energy_repulsive:           12.769384

@<TRIPOS>MOLECULE
ZINC000451019064
 57 58 1 0 0
SMALL
USER_CHARGES


@<TRIPOS>ATOM
      1 C1        -10.4485    1.5842   57.3375 C.3     1  ZINC000451019064   -0.1500
      2 C2        -10.7938    0.7106   58.5452 C.3     1  ZINC000451019064    0.0900
      3 H3        -11.8446    0.8441   58.8024 H       1  ZINC000451019064    0.0700
      4 C4         -9.9205    1.1159   59.7357 C.3     1  ZINC000451019064    0.0200
      5 N5        -10.2018    0.2233   60.8694 N.3     1  ZINC000451019064   -0.5400
      6 C6         -9.4241    0.6143   62.0528 C.3     1  ZINC000451019064    0.0600
      7 C7        -10.3776    0.9575   63.1991 C.3     1  ZINC000451019064   -0.1300
      8 C8         -9.5674    1.3469   64.4372 C.3     1  ZINC000451019064    0.1100
      9 N9         -8.9777    0.1453   65.0326 N.am    1  ZINC000451019064   -1.1200
     10 S10        -8.0288    0.2711   66.3840 S.o2    1  ZINC000451019064    2.6100
     11 O11        -8.8548    0.9334   67.3318 O.2     1  ZINC000451019064   -0.9600
     12 O12        -7.5676   -1.0533   66.6129 O.2     1  ZINC000451019064   -0.9500
     13 C13        -6.6571    1.3438   65.8756 C.3     1  ZINC000451019064   -0.6300
     14 C14        -5.5420    1.2759   66.9210 C.3     1  ZINC000451019064   -0.1100
     15 C15        -4.4072    2.2197   66.5182 C.3     1  ZINC000451019064   -0.0800
     16 C16        -3.8543    1.7999   65.1548 C.3     1  ZINC000451019064   -0.1200
     17 C17        -2.7194    2.7437   64.7521 C.3     1  ZINC000451019064   -0.1200
     18 C18        -3.2525    4.1753   64.6674 C.3     1  ZINC000451019064   -0.1200
     19 C19        -3.8053    4.5952   66.0308 C.3     1  ZINC000451019064   -0.1200
     20 C20        -4.9403    3.6513   66.4335 C.3     1  ZINC000451019064   -0.1200
     21 C21        -9.9412   -1.1774   60.5069 C.3     1  ZINC000451019064    0.0200
     22 C22       -10.8141   -1.5597   59.3087 C.3     1  ZINC000451019064    0.0900
     23 H23       -11.8655   -1.4929   59.5883 H       1  ZINC000451019064    0.0700
     24 C24       -10.4904   -2.9913   58.8766 C.3     1  ZINC000451019064   -0.1500
     25 O25       -10.5509   -0.6623   58.2267 O.3     1  ZINC000451019064   -0.3800
     26 H26       -11.0694    1.2942   56.4899 H       1  ZINC000451019064    0.0700
     27 H27       -10.6323    2.6305   57.5815 H       1  ZINC000451019064    0.0700
     28 H28        -9.3976    1.4503   57.0808 H       1  ZINC000451019064    0.0600
     29 H29        -8.8691    1.0342   59.4603 H       1  ZINC000451019064    0.0400
     30 H30       -10.1447    2.1445   60.0179 H       1  ZINC000451019064    0.0900
     31 H31        -8.7784   -0.2112   62.3522 H       1  ZINC000451019064    0.0400
     32 H32        -8.8137    1.4854   61.8148 H       1  ZINC000451019064    0.0800
     33 H33       -11.0145    1.7916   62.9046 H       1  ZINC000451019064    0.0800
     34 H34       -10.9972    0.0905   63.4283 H       1  ZINC000451019064    0.0800
     35 H35        -8.7740    2.0370   64.1499 H       1  ZINC000451019064    0.0800
     36 H36       -10.2224    1.8284   65.1633 H       1  ZINC000451019064    0.0700
     37 H37        -9.1431   -0.7240   64.6354 H       1  ZINC000451019064    0.4200
     38 H38        -6.2725    1.0098   64.9119 H       1  ZINC000451019064    0.1300
     39 H39        -7.0119    2.3709   65.7889 H       1  ZINC000451019064    0.1400
     40 H40        -5.9359    1.5750   67.8923 H       1  ZINC000451019064    0.0800
     41 H41        -5.1622    0.2560   66.9814 H       1  ZINC000451019064    0.0800
     42 H42        -3.6128    2.1713   67.2630 H       1  ZINC000451019064    0.0800
     43 H43        -3.4745    0.7800   65.2152 H       1  ZINC000451019064    0.0600
     44 H44        -4.6487    1.8482   64.4101 H       1  ZINC000451019064    0.0700
     45 H45        -1.9250    2.6952   65.4969 H       1  ZINC000451019064    0.0600
     46 H46        -2.3255    2.4445   63.7808 H       1  ZINC000451019064    0.0600
     47 H47        -2.4439    4.8476   64.3804 H       1  ZINC000451019064    0.0600
     48 H48        -4.0469    4.2237   63.9226 H       1  ZINC000451019064    0.0600
     49 H49        -3.0110    4.5467   66.7756 H       1  ZINC000451019064    0.0600
     50 H50        -4.1851    5.6151   65.9704 H       1  ZINC000451019064    0.0600
     51 H51        -5.7347    3.6997   65.6888 H       1  ZINC000451019064    0.0700
     52 H52        -5.3341    3.9505   67.4048 H       1  ZINC000451019064    0.0600
     53 H53        -8.8901   -1.2957   60.2437 H       1  ZINC000451019064    0.0400
     54 H54       -10.1804   -1.8227   61.3521 H       1  ZINC000451019064    0.0900
     55 H55       -10.6889   -3.6738   59.7030 H       1  ZINC000451019064    0.0700
     56 H56       -11.1122   -3.2628   58.0236 H       1  ZINC000451019064    0.0700
     57 H57        -9.4393   -3.0570   58.5956 H       1  ZINC000451019064    0.0600
@<TRIPOS>BOND
     1     1     2    1
     2     1    26    1
     3     1    27    1
     4     1    28    1
     5     2     3    1
     6     2    25    1
     7     2     4    1
     8     4     5    1
     9     4    29    1
    10     4    30    1
    11     5     6    1
    12     5    21    1
    13     6     7    1
    14     6    31    1
    15     6    32    1
    16     7     8    1
    17     7    33    1
    18     7    34    1
    19     8     9    1
    20     8    35    1
    21     8    36    1
    22     9    10   am
    23     9    37    1
    24    10    11    2
    25    10    12    2
    26    10    13    1
    27    13    14    1
    28    13    38    1
    29    13    39    1
    30    14    15    1
    31    14    40    1
    32    14    41    1
    33    15    20    1
    34    15    16    1
    35    15    42    1
    36    16    17    1
    37    16    43    1
    38    16    44    1
    39    17    18    1
    40    17    45    1
    41    17    46    1
    42    18    19    1
    43    18    47    1
    44    18    48    1
    45    19    20    1
    46    19    49    1
    47    19    50    1
    48    20    51    1
    49    20    52    1
    50    21    22    1
    51    21    53    1
    52    21    54    1
    53    22    23    1
    54    22    24    1
    55    22    25    1
    56    24    55    1
    57    24    56    1
    58    24    57    1
@<TRIPOS>SUBSTRUCTURE
     1 ZINC000451019064        1 TEMP              0 ****  ****    0 ROOT


##########                                Name:    ZINC000179496896
##########                DOCK_Rotatable_Bonds:                   8
##########                         Heavy_Atoms:                  27
##########                    Molecular_Weight:             396.504
##########                DOCK_Rotatable_Bonds:                   8
##########                       Formal_Charge:          0.00999944
##########                     HBond_Acceptors:                   8
##########                        HBond_Donors:                   1
##########                         Heavy_Atoms:                  27
##########                          Grid_Score:          -32.052521
##########                     Grid_vdw_energy:          -32.143936
##########                      Grid_es_energy:            0.091415
##########           Internal_energy_repulsive:           23.695595

@<TRIPOS>MOLECULE
ZINC000179496896
 53 55 1 0 0
SMALL
USER_CHARGES


@<TRIPOS>ATOM
      1 C1         -3.1224    3.0920   50.0918 C.3     1  ZINC000179496896   -0.1500
      2 C2         -4.1819    2.3486   50.9076 C.3     1  ZINC000179496896   -0.1100
      3 C3         -3.9000    2.5348   52.3999 C.3     1  ZINC000179496896   -0.1400
      4 C4         -5.5665    2.9089   50.5764 C.3     1  ZINC000179496896    0.1200
      5 N5         -6.5957    1.9874   51.0642 N.pl3   1  ZINC000179496896   -0.3300
      6 N6         -6.3923    0.6501   51.4229 N.2     1  ZINC000179496896   -0.2700
      7 C7         -7.5283    0.1390   51.8098 C.2     1  ZINC000179496896    0.0800
      8 C8         -8.5160    1.1445   51.7118 C.2     1  ZINC000179496896   -0.2500
      9 C9         -9.9444    1.0039   52.0486 C.2     1  ZINC000179496896    0.5900
     10 O10       -10.6759    1.9748   52.0136 O.2     1  ZINC000179496896   -0.5300
     11 N11       -10.4397   -0.2007   52.3955 N.am    1  ZINC000179496896   -0.7100
     12 C12       -11.8588   -0.3400   52.7319 C.3     1  ZINC000179496896    0.1300
     13 C13       -12.0936    0.1472   54.1631 C.3     1  ZINC000179496896    0.0700
     14 H14       -11.5232    1.0601   54.3344 H       1  ZINC000179496896    0.0900
     15 C15       -13.5832    0.4305   54.3675 C.3     1  ZINC000179496896   -0.1900
     16 N16       -11.6576   -0.8875   55.1104 N.3     1  ZINC000179496896   -0.5300
     17 C17       -12.6407   -1.9773   55.1894 C.3     1  ZINC000179496896    0.0600
     18 C18       -11.9868   -3.1956   55.8528 C.3     1  ZINC000179496896   -0.0400
     19 C19       -11.2947   -2.7277   57.1156 C.2     1  ZINC000179496896   -0.1700
     20 C20       -11.0228   -1.4365   57.3910 C.2     1  ZINC000179496896   -0.1100
     21 C21       -10.3834   -1.2493   58.6112 C.2     1  ZINC000179496896   -0.1200
     22 C22       -10.1400   -2.3549   59.3095 C.2     1  ZINC000179496896   -0.2200
     23 S23       -10.7317   -3.7538   58.4246 S.3     1  ZINC000179496896    0.1000
     24 C24       -11.3927   -0.3105   56.4352 C.3     1  ZINC000179496896    0.1200
     25 C25        -7.8919    2.2851   51.2480 C.2     1  ZINC000179496896    0.0700
     26 C26        -8.5471    3.6167   50.9863 C.3     1  ZINC000179496896    0.3400
     27 F27        -8.3852    4.4437   52.1029 F       1  ZINC000179496896   -0.1500
     28 F28        -7.9533    4.2174   49.8710 F       1  ZINC000179496896   -0.2000
     29 H29        -2.1359    2.6929   50.3279 H       1  ZINC000179496896    0.0600
     30 H30        -3.3233    2.9594   49.0288 H       1  ZINC000179496896    0.0600
     31 H31        -3.1531    4.1535   50.3378 H       1  ZINC000179496896    0.0600
     32 H32        -4.1511    1.2871   50.6618 H       1  ZINC000179496896    0.0800
     33 H33        -3.9309    3.5962   52.6458 H       1  ZINC000179496896    0.0600
     34 H34        -4.6549    2.0051   52.9811 H       1  ZINC000179496896    0.0600
     35 H35        -2.9136    2.1356   52.6359 H       1  ZINC000179496896    0.0700
     36 H36        -5.6904    3.8793   51.0573 H       1  ZINC000179496896    0.1000
     37 H37        -5.6635    3.0233   49.4968 H       1  ZINC000179496896    0.1000
     38 H38        -7.6863   -0.8752   52.1457 H       1  ZINC000179496896    0.2000
     39 H39        -9.8565   -0.9754   52.4223 H       1  ZINC000179496896    0.4100
     40 H40       -12.4559    0.2567   52.0424 H       1  ZINC000179496896    0.0700
     41 H41       -12.1499   -1.3873   52.6522 H       1  ZINC000179496896    0.0700
     42 H42       -13.7505    0.7775   55.3871 H       1  ZINC000179496896    0.0600
     43 H43       -13.9067    1.1983   53.6646 H       1  ZINC000179496896    0.0700
     44 H44       -14.1535   -0.4824   54.1962 H       1  ZINC000179496896    0.0600
     45 H45       -13.4959   -1.6543   55.7831 H       1  ZINC000179496896    0.0400
     46 H46       -12.9719   -2.2429   54.1856 H       1  ZINC000179496896    0.0900
     47 H47       -12.7500   -3.9325   56.1027 H       1  ZINC000179496896    0.0800
     48 H48       -11.2565   -3.6364   55.1744 H       1  ZINC000179496896    0.0900
     49 H49       -10.1023   -0.2697   58.9687 H       1  ZINC000179496896    0.1400
     50 H50        -9.6533   -2.3880   60.2731 H       1  ZINC000179496896    0.1600
     51 H51       -10.5671    0.3979   56.3672 H       1  ZINC000179496896    0.0900
     52 H52       -12.2859    0.1984   56.7977 H       1  ZINC000179496896    0.0500
     53 H53        -9.6099    3.4676   50.7957 H       1  ZINC000179496896    0.1300
@<TRIPOS>BOND
     1     1     2    1
     2     1    29    1
     3     1    30    1
     4     1    31    1
     5     2     3    1
     6     2     4    1
     7     2    32    1
     8     3    33    1
     9     3    34    1
    10     3    35    1
    11     4     5    1
    12     4    36    1
    13     4    37    1
    14     5    25    1
    15     5     6    1
    16     6     7    2
    17     7     8    1
    18     7    38    1
    19     8     9    1
    20     8    25    2
    21     9    10    2
    22     9    11   am
    23    11    12    1
    24    11    39    1
    25    12    13    1
    26    12    40    1
    27    12    41    1
    28    13    14    1
    29    13    15    1
    30    13    16    1
    31    15    42    1
    32    15    43    1
    33    15    44    1
    34    16    24    1
    35    16    17    1
    36    17    18    1
    37    17    45    1
    38    17    46    1
    39    18    19    1
    40    18    47    1
    41    18    48    1
    42    19    23    1
    43    19    20    2
    44    20    21    1
    45    20    24    1
    46    21    22    2
    47    21    49    1
    48    22    23    1
    49    22    50    1
    50    24    51    1
    51    24    52    1
    52    25    26    1
    53    26    27    1
    54    26    28    1
    55    26    53    1
@<TRIPOS>SUBSTRUCTURE
     1 ZINC000179496896        1 TEMP              0 ****  ****    0 ROOT


##########                                Name:    ZINC001282645012
##########                DOCK_Rotatable_Bonds:                   9
##########                         Heavy_Atoms:                  27
##########                    Molecular_Weight:             372.511
##########                DOCK_Rotatable_Bonds:                   9
##########                       Formal_Charge:          -0.0200004
##########                     HBond_Acceptors:                   6
##########                        HBond_Donors:                   1
##########                         Heavy_Atoms:                  27
##########                          Grid_Score:          -32.048256
##########                     Grid_vdw_energy:          -30.423466
##########                      Grid_es_energy:           -1.624792
##########           Internal_energy_repulsive:           29.488789

@<TRIPOS>MOLECULE
ZINC001282645012
 59 61 1 0 0
SMALL
USER_CHARGES


@<TRIPOS>ATOM
      1 C1          1.8977    0.4499   48.8980 C.2     1  ZINC001282645012   -0.1900
      2 C2          2.2988    0.4372   50.1450 C.2     1  ZINC001282645012   -0.1300
      3 C3          3.3983    1.3657   50.5923 C.3     1  ZINC001282645012   -0.0500
      4 C4          3.7603    1.0635   52.0478 C.3     1  ZINC001282645012   -0.1500
      5 C5          4.6298    1.1614   49.7075 C.3     1  ZINC001282645012   -0.1400
      6 C6          2.9284    2.7929   50.4774 C.2     1  ZINC001282645012    0.5500
      7 O7          3.6120    3.6118   49.9003 O.2     1  ZINC001282645012   -0.5300
      8 N8          1.7485    3.1593   51.0159 N.am    1  ZINC001282645012   -0.6300
      9 C9          1.0536    4.4911   51.0461 C.3     1  ZINC001282645012    0.1200
     10 H10         1.5793    5.3128   50.5600 H       1  ZINC001282645012    0.1300
     11 C11         0.8041    4.6631   52.5748 C.3     1  ZINC001282645012   -0.1300
     12 C12         0.5790    3.2127   53.0685 C.3     1  ZINC001282645012   -0.1300
     13 C13         0.7201    2.3603   51.7651 C.3     1  ZINC001282645012    0.1200
     14 H14         0.9546    1.3065   51.9153 H       1  ZINC001282645012    0.1200
     15 C15        -0.5751    2.6512   50.9486 C.3     1  ZINC001282645012    0.1300
     16 H16        -0.6594    1.9660   50.1052 H       1  ZINC001282645012    0.1000
     17 N17        -1.7583    2.5580   51.8075 N.am    1  ZINC001282645012   -0.7100
     18 C18        -2.9808    2.8127   51.3005 C.2     1  ZINC001282645012    0.5100
     19 O19        -3.1013    3.1206   50.1336 O.2     1  ZINC001282645012   -0.5100
     20 C20        -4.1981    2.7150   52.1835 C.3     1  ZINC001282645012    0.1200
     21 H21        -4.0201    1.9790   52.9675 H       1  ZINC001282645012    0.1300
     22 C22        -4.4786    4.0786   52.8181 C.3     1  ZINC001282645012   -0.1100
     23 C23        -4.7693    3.8970   54.3092 C.3     1  ZINC001282645012   -0.1000
     24 C24        -4.4348    5.1902   55.0553 C.3     1  ZINC001282645012   -0.1500
     25 C25        -6.2501    3.5648   54.5034 C.3     1  ZINC001282645012   -0.1500
     26 N26        -5.3522    2.3034   51.3804 N.pl3   1  ZINC001282645012   -0.4500
     27 C27        -5.9946    1.0962   51.4405 C.2     1  ZINC001282645012   -0.0600
     28 C28        -6.9936    1.1411   50.5386 C.2     1  ZINC001282645012   -0.0200
     29 N29        -6.9619    2.3428   49.9438 N.2     1  ZINC001282645012   -0.4900
     30 C30        -5.9845    3.0462   50.4466 C.2     1  ZINC001282645012    0.1900
     31 C31        -0.3295    4.1202   50.4311 C.3     1  ZINC001282645012   -0.1400
     32 H32         2.3549    1.1258   48.1904 H       1  ZINC001282645012    0.1000
     33 H33         1.1128   -0.2187   48.5764 H       1  ZINC001282645012    0.1000
     34 H34         1.8417   -0.2387   50.8524 H       1  ZINC001282645012    0.1100
     35 H35         4.1003    0.0312   52.1309 H       1  ZINC001282645012    0.0700
     36 H36         4.5557    1.7351   52.3713 H       1  ZINC001282645012    0.0700
     37 H37         2.8832    1.2091   52.6782 H       1  ZINC001282645012    0.0600
     38 H38         4.3718    1.3766   48.6705 H       1  ZINC001282645012    0.0600
     39 H39         5.4251    1.8329   50.0311 H       1  ZINC001282645012    0.0700
     40 H40         4.9696    0.1291   49.7906 H       1  ZINC001282645012    0.0700
     41 H41         1.6762    5.1026   53.0592 H       1  ZINC001282645012    0.0800
     42 H42        -0.0827    5.2713   52.7531 H       1  ZINC001282645012    0.0800
     43 H43         1.3394    2.9330   53.7975 H       1  ZINC001282645012    0.0700
     44 H44        -0.4193    3.1017   53.4915 H       1  ZINC001282645012    0.0800
     45 H45        -1.6618    2.3129   52.7410 H       1  ZINC001282645012    0.4000
     46 H46        -3.6085    4.7232   52.6934 H       1  ZINC001282645012    0.0900
     47 H47        -5.3413    4.5347   52.3326 H       1  ZINC001282645012    0.0800
     48 H48        -4.1598    3.0831   54.7018 H       1  ZINC001282645012    0.0700
     49 H49        -5.0442    6.0043   54.6627 H       1  ZINC001282645012    0.0600
     50 H50        -4.6418    5.0609   56.1175 H       1  ZINC001282645012    0.0600
     51 H51        -3.3798    5.4270   54.9169 H       1  ZINC001282645012    0.0500
     52 H52        -6.4694    2.6007   54.0444 H       1  ZINC001282645012    0.0600
     53 H53        -6.4758    3.5198   55.5688 H       1  ZINC001282645012    0.0600
     54 H54        -6.8602    4.3372   54.0351 H       1  ZINC001282645012    0.0600
     55 H55        -5.7476    0.2670   52.0870 H       1  ZINC001282645012    0.1700
     56 H56        -7.6969    0.3484   50.3305 H       1  ZINC001282645012    0.1700
     57 H57        -5.7207    4.0532   50.1588 H       1  ZINC001282645012    0.2000
     58 H58        -1.0927    4.7959   50.8171 H       1  ZINC001282645012    0.0900
     59 H59        -0.3089    4.1450   49.3416 H       1  ZINC001282645012    0.0900
@<TRIPOS>BOND
     1     1     2    2
     2     1    32    1
     3     1    33    1
     4     2     3    1
     5     2    34    1
     6     3     4    1
     7     3     5    1
     8     3     6    1
     9     4    35    1
    10     4    36    1
    11     4    37    1
    12     5    38    1
    13     5    39    1
    14     5    40    1
    15     6     7    2
    16     6     8   am
    17     8    13    1
    18     8     9    1
    19     9    10    1
    20     9    31    1
    21     9    11    1
    22    11    12    1
    23    11    41    1
    24    11    42    1
    25    12    13    1
    26    12    43    1
    27    12    44    1
    28    13    14    1
    29    13    15    1
    30    15    16    1
    31    15    17    1
    32    15    31    1
    33    17    18   am
    34    17    45    1
    35    18    19    2
    36    18    20    1
    37    20    21    1
    38    20    22    1
    39    20    26    1
    40    22    23    1
    41    22    46    1
    42    22    47    1
    43    23    24    1
    44    23    25    1
    45    23    48    1
    46    24    49    1
    47    24    50    1
    48    24    51    1
    49    25    52    1
    50    25    53    1
    51    25    54    1
    52    26    30    1
    53    26    27    1
    54    27    28    2
    55    27    55    1
    56    28    29    1
    57    28    56    1
    58    29    30    2
    59    30    57    1
    60    31    58    1
    61    31    59    1
@<TRIPOS>SUBSTRUCTURE
     1 ZINC001282645012        1 TEMP              0 ****  ****    0 ROOT


##########                                Name:    ZINC000265786263
##########                DOCK_Rotatable_Bonds:                   7
##########                         Heavy_Atoms:                  28
##########                    Molecular_Weight:             386.451
##########                DOCK_Rotatable_Bonds:                   7
##########                       Formal_Charge:           0.0499992
##########                     HBond_Acceptors:                   8
##########                        HBond_Donors:                   2
##########                         Heavy_Atoms:                  28
##########                          Grid_Score:          -32.031227
##########                     Grid_vdw_energy:          -28.374142
##########                      Grid_es_energy:           -3.657087
##########           Internal_energy_repulsive:           18.155861

@<TRIPOS>MOLECULE
ZINC000265786263
 54 57 1 0 0
SMALL
USER_CHARGES


@<TRIPOS>ATOM
      1 C1        -14.6896   -1.6051   55.5193 C.3     1  ZINC000265786263   -0.1500
      2 C2        -14.2060   -2.6884   56.4856 C.3     1  ZINC000265786263    0.1600
      3 C3        -15.1935   -3.8566   56.5199 C.3     1  ZINC000265786263   -0.1600
      4 C4        -14.8016   -5.1349   55.7762 C.3     1  ZINC000265786263   -0.1600
      5 C5        -14.7849   -5.1041   57.3057 C.3     1  ZINC000265786263   -0.1600
      6 N6        -12.8599   -3.1542   56.1103 N.am    1  ZINC000265786263   -0.7100
      7 C7        -12.0520   -2.8726   57.1485 C.2     1  ZINC000265786263    0.7100
      8 O8        -10.8638   -3.1278   57.1686 O.2     1  ZINC000265786263   -0.5400
      9 N9        -12.7026   -2.2804   58.1564 N.am    1  ZINC000265786263   -0.5600
     10 C10       -12.0714   -1.8626   59.4108 C.3     1  ZINC000265786263    0.1000
     11 C11       -11.1934   -0.6645   59.1565 C.2     1  ZINC000265786263    0.5100
     12 O12       -11.1347   -0.1802   58.0462 O.2     1  ZINC000265786263   -0.5300
     13 N13       -10.4733   -0.1310   60.1632 N.am    1  ZINC000265786263   -0.6100
     14 C14        -9.6162    1.0430   59.9387 C.3     1  ZINC000265786263    0.1100
     15 C15        -9.9491    2.0986   60.9985 C.3     1  ZINC000265786263    0.0400
     16 N16        -9.8416    1.4974   62.3345 N.3     1  ZINC000265786263   -0.5300
     17 C17        -9.9843    2.5161   63.3832 C.3     1  ZINC000265786263    0.0900
     18 C18        -9.7015    1.8963   64.7275 C.ar    1  ZINC000265786263   -0.0600
     19 C19       -10.4518    2.2636   65.8289 C.ar    1  ZINC000265786263   -0.1300
     20 C20       -10.1948    1.6967   67.0638 C.ar    1  ZINC000265786263   -0.1000
     21 C21        -9.1873    0.7616   67.1995 C.ar    1  ZINC000265786263   -0.1400
     22 C22        -8.4328    0.3914   66.0955 C.ar    1  ZINC000265786263    0.1100
     23 O23        -7.4412   -0.5287   66.2265 O.3     1  ZINC000265786263   -0.5000
     24 C24        -8.6962    0.9573   64.8568 C.ar    1  ZINC000265786263   -0.1200
     25 C25       -10.8209    0.4172   62.5131 C.3     1  ZINC000265786263    0.0400
     26 C26       -10.5285   -0.7036   61.5168 C.3     1  ZINC000265786263    0.1200
     27 C27       -14.0101   -2.1147   57.8750 C.2     1  ZINC000265786263    0.5400
     28 O28       -14.8539   -1.6110   58.5849 O.2     1  ZINC000265786263   -0.4500
     29 H29       -13.9562   -0.7998   55.4797 H       1  ZINC000265786263    0.0700
     30 H30       -14.8124   -2.0340   54.5248 H       1  ZINC000265786263    0.0800
     31 H31       -15.6448   -1.2099   55.8650 H       1  ZINC000265786263    0.0900
     32 H32       -16.2480   -3.5807   56.5263 H       1  ZINC000265786263    0.1100
     33 H33       -15.5985   -5.7003   55.2929 H       1  ZINC000265786263    0.1000
     34 H34       -13.8404   -5.1437   55.2624 H       1  ZINC000265786263    0.1100
     35 H35       -13.8126   -5.0927   57.7983 H       1  ZINC000265786263    0.1000
     36 H36       -15.5707   -5.6493   57.8287 H       1  ZINC000265786263    0.1000
     37 H37       -12.6058   -3.5813   55.2774 H       1  ZINC000265786263    0.4400
     38 H38       -12.8421   -1.6010   60.1358 H       1  ZINC000265786263    0.1300
     39 H39       -11.4662   -2.6799   59.8028 H       1  ZINC000265786263    0.1300
     40 H40        -8.5689    0.7539   60.0263 H       1  ZINC000265786263    0.0900
     41 H41        -9.8049    1.4495   58.9451 H       1  ZINC000265786263    0.0900
     42 H42        -9.2489    2.9299   60.9163 H       1  ZINC000265786263    0.0900
     43 H43       -10.9652    2.4616   60.8437 H       1  ZINC000265786263    0.0400
     44 H44        -9.2785    3.3265   63.2010 H       1  ZINC000265786263    0.0900
     45 H45       -11.0006    2.9100   63.3713 H       1  ZINC000265786263    0.0500
     46 H46       -11.2399    2.9947   65.7249 H       1  ZINC000265786263    0.1200
     47 H47       -10.7822    1.9855   67.9228 H       1  ZINC000265786263    0.1300
     48 H48        -8.9868    0.3195   68.1642 H       1  ZINC000265786263    0.1300
     49 H49        -6.9826   -0.7330   65.4000 H       1  ZINC000265786263    0.3900
     50 H50        -8.1104    0.6707   63.9960 H       1  ZINC000265786263    0.1300
     51 H51       -10.7531    0.0291   63.5295 H       1  ZINC000265786263    0.1000
     52 H52       -11.8248    0.8036   62.3372 H       1  ZINC000265786263    0.0400
     53 H53       -11.3181   -1.4534   61.5670 H       1  ZINC000265786263    0.1000
     54 H54        -9.5684   -1.1624   61.7533 H       1  ZINC000265786263    0.0800
@<TRIPOS>BOND
     1     1     2    1
     2     1    29    1
     3     1    30    1
     4     1    31    1
     5     2    27    1
     6     2     3    1
     7     2     6    1
     8     3     5    1
     9     3     4    1
    10     3    32    1
    11     4     5    1
    12     4    33    1
    13     4    34    1
    14     5    35    1
    15     5    36    1
    16     6     7   am
    17     6    37    1
    18     7     8    2
    19     7     9   am
    20     9    10    1
    21     9    27   am
    22    10    11    1
    23    10    38    1
    24    10    39    1
    25    11    12    2
    26    11    13   am
    27    13    26    1
    28    13    14    1
    29    14    15    1
    30    14    40    1
    31    14    41    1
    32    15    16    1
    33    15    42    1
    34    15    43    1
    35    16    17    1
    36    16    25    1
    37    17    18    1
    38    17    44    1
    39    17    45    1
    40    18    24   ar
    41    18    19   ar
    42    19    20   ar
    43    19    46    1
    44    20    21   ar
    45    20    47    1
    46    21    22   ar
    47    21    48    1
    48    22    23    1
    49    22    24   ar
    50    23    49    1
    51    24    50    1
    52    25    26    1
    53    25    51    1
    54    25    52    1
    55    26    53    1
    56    26    54    1
    57    27    28    2
@<TRIPOS>SUBSTRUCTURE
     1 ZINC000265786263        1 TEMP              0 ****  ****    0 ROOT


##########                                Name:    ZINC000963156778
##########                DOCK_Rotatable_Bonds:                   6
##########                         Heavy_Atoms:                  24
##########                    Molecular_Weight:             349.414
##########                DOCK_Rotatable_Bonds:                   6
##########                       Formal_Charge:         -0.00999984
##########                     HBond_Acceptors:                   9
##########                        HBond_Donors:                   2
##########                         Heavy_Atoms:                  24
##########                          Grid_Score:          -32.014660
##########                     Grid_vdw_energy:          -29.888485
##########                      Grid_es_energy:           -2.126175
##########           Internal_energy_repulsive:            8.593211

@<TRIPOS>MOLECULE
ZINC000963156778
 43 46 1 0 0
SMALL
USER_CHARGES


@<TRIPOS>ATOM
      1 C1         -7.3451   -0.0977   51.7047 C.3     1  ZINC000963156778   -0.0800
      2 C2         -7.3826    1.2311   50.9947 C.2     1  ZINC000963156778    0.0300
      3 C3         -8.3219    2.1787   51.2212 C.2     1  ZINC000963156778   -0.2600
      4 C4         -9.4804    2.1234   52.1835 C.3     1  ZINC000963156778    0.1300
      5 N5         -9.1241    2.8322   53.4199 N.3     1  ZINC000963156778   -0.5000
      6 C6         -7.9683    2.1838   54.0911 C.3     1  ZINC000963156778    0.0600
      7 C7         -8.0551    2.6566   55.5582 C.3     1  ZINC000963156778   -0.1700
      8 H8         -7.2465    3.2825   55.9357 H       1  ZINC000963156778    0.1200
      9 C9         -9.5371    3.0265   55.7731 C.3     1  ZINC000963156778   -0.1700
     10 H10        -9.8319    3.9203   56.3229 H       1  ZINC000963156778    0.1200
     11 C11       -10.2212    2.7459   54.4178 C.3     1  ZINC000963156778    0.0600
     12 C12        -8.8822    1.8214   56.5375 C.3     1  ZINC000963156778    0.1200
     13 H13        -9.1688    0.8159   56.2297 H       1  ZINC000963156778    0.1400
     14 N14        -8.6191    1.9924   57.9685 N.am    1  ZINC000963156778   -0.7000
     15 C15        -9.6135    1.8203   58.8619 C.2     1  ZINC000963156778    0.5100
     16 O16       -10.7258    1.5224   58.4811 O.2     1  ZINC000963156778   -0.5000
     17 C17        -9.3432    1.9979   60.3338 C.3     1  ZINC000963156778   -0.1300
     18 C18        -9.7748    0.7381   61.0871 C.3     1  ZINC000963156778   -0.1100
     19 H19       -10.7815    0.4420   60.7920 H       1  ZINC000963156778    0.1300
     20 C20        -9.7005    0.9647   62.6109 C.3     1  ZINC000963156778   -0.1600
     21 C21        -8.6846   -0.0573   63.0723 C.2     1  ZINC000963156778    0.5300
     22 O22        -8.3243   -0.2216   64.2181 O.2     1  ZINC000963156778   -0.4800
     23 N23        -8.2469   -0.7518   62.0147 N.am    1  ZINC000963156778   -0.6900
     24 C24        -8.7953   -0.3893   60.8444 C.2     1  ZINC000963156778    0.5200
     25 O25        -8.5430   -0.8851   59.7673 O.2     1  ZINC000963156778   -0.4500
     26 S26        -7.8896    3.4622   50.1589 S.3     1  ZINC000963156778    0.4500
     27 N27        -6.6363    2.7503   49.5489 N.2     1  ZINC000963156778   -0.2900
     28 N28        -6.5015    1.6020   50.0882 N.2     1  ZINC000963156778   -0.2400
     29 H29        -6.7498   -0.0074   52.6133 H       1  ZINC000963156778    0.0900
     30 H30        -8.3598   -0.4000   51.9638 H       1  ZINC000963156778    0.0800
     31 H31        -6.8986   -0.8467   51.0507 H       1  ZINC000963156778    0.0800
     32 H32       -10.3516    2.5972   51.7311 H       1  ZINC000963156778    0.1000
     33 H33        -9.7114    1.0835   52.4144 H       1  ZINC000963156778    0.0700
     34 H34        -8.0562    1.0987   54.0356 H       1  ZINC000963156778    0.0600
     35 H35        -7.0326    2.5138   53.6401 H       1  ZINC000963156778    0.0800
     36 H36       -10.9817    3.4994   54.2128 H       1  ZINC000963156778    0.1000
     37 H37       -10.6616    1.7489   54.4135 H       1  ZINC000963156778    0.0500
     38 H38        -7.7292    2.2295   58.2731 H       1  ZINC000963156778    0.4000
     39 H39        -8.2779    2.1675   60.4896 H       1  ZINC000963156778    0.1000
     40 H40        -9.9058    2.8543   60.7056 H       1  ZINC000963156778    0.1200
     41 H41        -9.3560    1.9749   62.8321 H       1  ZINC000963156778    0.1200
     42 H42       -10.6695    0.7786   63.0741 H       1  ZINC000963156778    0.1300
     43 H43        -7.5882   -1.4601   62.0878 H       1  ZINC000963156778    0.4200
@<TRIPOS>BOND
     1     1     2    1
     2     1    29    1
     3     1    30    1
     4     1    31    1
     5     2    28    1
     6     2     3    2
     7     3     4    1
     8     3    26    1
     9     4     5    1
    10     4    32    1
    11     4    33    1
    12     5    11    1
    13     5     6    1
    14     6     7    1
    15     6    34    1
    16     6    35    1
    17     7     8    1
    18     7    12    1
    19     7     9    1
    20     9    10    1
    21     9    11    1
    22     9    12    1
    23    11    36    1
    24    11    37    1
    25    12    13    1
    26    12    14    1
    27    14    15   am
    28    14    38    1
    29    15    16    2
    30    15    17    1
    31    17    18    1
    32    17    39    1
    33    17    40    1
    34    18    19    1
    35    18    24    1
    36    18    20    1
    37    20    21    1
    38    20    41    1
    39    20    42    1
    40    21    22    2
    41    21    23   am
    42    23    24   am
    43    23    43    1
    44    24    25    2
    45    26    27    1
    46    27    28    2
@<TRIPOS>SUBSTRUCTURE
     1 ZINC000963156778        1 TEMP              0 ****  ****    0 ROOT


##########                                Name:    ZINC000054627026
##########                DOCK_Rotatable_Bonds:                   5
##########                         Heavy_Atoms:                  28
##########                    Molecular_Weight:              370.37
##########                DOCK_Rotatable_Bonds:                   5
##########                       Formal_Charge:         6.85453e-07
##########                     HBond_Acceptors:                   8
##########                        HBond_Donors:                   2
##########                         Heavy_Atoms:                  28
##########                          Grid_Score:          -31.978571
##########                     Grid_vdw_energy:          -31.906784
##########                      Grid_es_energy:           -0.071788
##########           Internal_energy_repulsive:            4.645988

@<TRIPOS>MOLECULE
ZINC000054627026
 42 46 1 0 0
SMALL
USER_CHARGES


@<TRIPOS>ATOM
      1 O1         -3.3678    3.8450   52.1307 O.2     1  ZINC000054627026   -0.5200
      2 C2         -2.9017    3.2348   51.1877 C.2     1  ZINC000054627026    0.6100
      3 N3         -3.7036    2.4796   50.4111 N.am    1  ZINC000054627026   -0.6500
      4 C4         -5.0725    2.3930   50.6935 C.ar    1  ZINC000054627026    0.1400
      5 C5         -5.8843    3.5146   50.5373 C.ar    1  ZINC000054627026   -0.0900
      6 C6         -7.2334    3.4427   50.8116 C.ar    1  ZINC000054627026   -0.0900
      7 C7         -7.7896    2.2483   51.2458 C.ar    1  ZINC000054627026    0.0500
      8 N8         -9.0716    1.8607   51.5949 N.pl3   1  ZINC000054627026   -0.5900
      9 C9         -9.0119    0.5376   51.9489 C.2     1  ZINC000054627026    0.3700
     10 C10       -10.1568   -0.2734   52.3885 C.2     1  ZINC000054627026    0.0200
     11 C11       -11.4382    0.1663   52.5401 C.2     1  ZINC000054627026   -0.1200
     12 C12       -12.1960   -0.9367   52.9732 C.2     1  ZINC000054627026   -0.2200
     13 C13       -11.3524   -1.9857   53.0647 C.2     1  ZINC000054627026   -0.0100
     14 O14       -10.1238   -1.5831   52.7063 O.3     1  ZINC000054627026   -0.1700
     15 N15        -7.7770    0.1039   51.8353 N.2     1  ZINC000054627026   -0.4600
     16 C16        -6.9780    1.1108   51.4064 C.ar    1  ZINC000054627026    0.0700
     17 C17        -5.6117    1.1938   51.1203 C.ar    1  ZINC000054627026   -0.0900
     18 C18        -1.4600    3.3260   50.8902 C.2     1  ZINC000054627026   -0.1000
     19 C19        -0.5439    2.3274   51.0643 C.2     1  ZINC000054627026    0.1000
     20 N20         0.6510    2.8215   50.6733 N.pl3   1  ZINC000054627026   -0.3100
     21 C21         1.8786    2.1438   50.6790 C.ar    1  ZINC000054627026    0.1300
     22 C22         3.0567    2.8366   50.4350 C.ar    1  ZINC000054627026   -0.1200
     23 C23         4.2643    2.1664   50.4417 C.ar    1  ZINC000054627026   -0.1000
     24 C24         4.3008    0.8067   50.6906 C.ar    1  ZINC000054627026   -0.1100
     25 C25         3.1289    0.1139   50.9334 C.ar    1  ZINC000054627026   -0.1000
     26 C26         1.9189    0.7798   50.9341 C.ar    1  ZINC000054627026   -0.1000
     27 N27         0.4271    4.1426   50.2603 N.2     1  ZINC000054627026   -0.0500
     28 N28        -0.8262    4.4038   50.3965 N.2     1  ZINC000054627026   -0.2000
     29 H29        -3.3326    1.9962   49.6564 H       1  ZINC000054627026    0.4200
     30 H30        -5.4539    4.4458   50.1998 H       1  ZINC000054627026    0.1500
     31 H31        -7.8570    4.3160   50.6887 H       1  ZINC000054627026    0.1300
     32 H32        -9.8637    2.4206   51.5905 H       1  ZINC000054627026    0.4300
     33 H33       -11.8012    1.1679   52.3627 H       1  ZINC000054627026    0.1600
     34 H34       -13.2537   -0.9427   53.1916 H       1  ZINC000054627026    0.1600
     35 H35       -11.6223   -2.9852   53.3724 H       1  ZINC000054627026    0.2100
     36 H36        -4.9798    0.3254   51.2350 H       1  ZINC000054627026    0.1400
     37 H37        -0.7377    1.3344   51.4420 H       1  ZINC000054627026    0.2100
     38 H38         3.0288    3.8984   50.2399 H       1  ZINC000054627026    0.1400
     39 H39         5.1812    2.7048   50.2520 H       1  ZINC000054627026    0.1400
     40 H40         5.2462    0.2847   50.6949 H       1  ZINC000054627026    0.1400
     41 H41         3.1605   -0.9481   51.1272 H       1  ZINC000054627026    0.1400
     42 H42         1.0040    0.2381   51.1239 H       1  ZINC000054627026    0.1400
@<TRIPOS>BOND
     1     1     2    2
     2     2     3   am
     3     2    18    1
     4     3     4    1
     5     3    29    1
     6     4    17   ar
     7     4     5   ar
     8     5     6   ar
     9     5    30    1
    10     6     7   ar
    11     6    31    1
    12     7    16   ar
    13     7     8    1
    14     8     9    1
    15     8    32    1
    16     9    10    1
    17     9    15    2
    18    10    14    1
    19    10    11    2
    20    11    12    1
    21    11    33    1
    22    12    13    2
    23    12    34    1
    24    13    14    1
    25    13    35    1
    26    15    16    1
    27    16    17   ar
    28    17    36    1
    29    18    28    1
    30    18    19    2
    31    19    20    1
    32    19    37    1
    33    20    21    1
    34    20    27    1
    35    21    26   ar
    36    21    22   ar
    37    22    23   ar
    38    22    38    1
    39    23    24   ar
    40    23    39    1
    41    24    25   ar
    42    24    40    1
    43    25    26   ar
    44    25    41    1
    45    26    42    1
    46    27    28    2
@<TRIPOS>SUBSTRUCTURE
     1 ZINC000054627026        1 TEMP              0 ****  ****    0 ROOT


##########                                Name:    ZINC000918875053
##########                DOCK_Rotatable_Bonds:                   6
##########                         Heavy_Atoms:                  26
##########                    Molecular_Weight:             359.357
##########                DOCK_Rotatable_Bonds:                   6
##########                       Formal_Charge:           0.0200003
##########                     HBond_Acceptors:                   8
##########                        HBond_Donors:                   0
##########                         Heavy_Atoms:                  26
##########                          Grid_Score:          -31.953070
##########                     Grid_vdw_energy:          -31.316545
##########                      Grid_es_energy:           -0.636524
##########           Internal_energy_repulsive:            6.920980

@<TRIPOS>MOLECULE
ZINC000918875053
 44 47 1 0 0
SMALL
USER_CHARGES


@<TRIPOS>ATOM
      1 C1        -12.3246   -1.4563   52.5361 C.3     1  ZINC000918875053   -0.1700
      2 C2        -11.5144   -0.4579   53.3656 C.3     1  ZINC000918875053    0.1900
      3 H3        -12.0163    0.5097   53.3614 H       1  ZINC000918875053    0.1400
      4 O4        -11.4038   -0.9400   54.7307 O.3     1  ZINC000918875053   -0.3400
      5 C5        -11.4283   -0.0182   55.7063 C.2     1  ZINC000918875053    0.4800
      6 O6        -11.1309    1.1272   55.4627 O.2     1  ZINC000918875053   -0.4900
      7 C7        -11.8265   -0.4122   57.1053 C.3     1  ZINC000918875053   -0.0900
      8 H8        -12.8706   -0.1641   57.2960 H       1  ZINC000918875053    0.1400
      9 C9        -11.5606   -1.9150   57.3539 C.3     1  ZINC000918875053   -0.1400
     10 C10       -11.0903   -1.9759   58.7904 C.2     1  ZINC000918875053    0.5300
     11 O11       -11.0428   -2.9837   59.4637 O.2     1  ZINC000918875053   -0.5000
     12 N12       -10.7323   -0.7508   59.2120 N.am    1  ZINC000918875053   -0.5800
     13 C13       -10.2597   -0.4648   60.4989 C.ar    1  ZINC000918875053    0.1000
     14 C14       -11.0414    0.2697   61.3795 C.ar    1  ZINC000918875053   -0.0800
     15 C15       -10.5728    0.5501   62.6488 C.ar    1  ZINC000918875053   -0.1200
     16 C16        -9.3264    0.1006   63.0431 C.ar    1  ZINC000918875053   -0.0800
     17 C17        -8.5435   -0.6318   62.1691 C.ar    1  ZINC000918875053   -0.1500
     18 C18        -9.0083   -0.9210   60.8994 C.ar    1  ZINC000918875053    0.1100
     19 F19        -8.2441   -1.6367   60.0458 F       1  ZINC000918875053   -0.1300
     20 C20       -10.9012    0.2494   58.1504 C.3     1  ZINC000918875053    0.1200
     21 C21       -10.1373   -0.3119   52.7713 C.2     1  ZINC000918875053    0.1800
     22 N22        -9.4236    0.7867   52.7144 N.2     1  ZINC000918875053   -0.4600
     23 C23        -8.2757    0.4416   52.1044 C.2     1  ZINC000918875053    0.2100
     24 C24        -7.1176    1.3565   51.7997 C.3     1  ZINC000918875053   -0.0900
     25 C25        -7.0154    1.9178   50.3800 C.3     1  ZINC000918875053   -0.1600
     26 C26        -7.4323    2.8303   51.5353 C.3     1  ZINC000918875053   -0.1500
     27 N27        -8.3484   -0.8257   51.8266 N.2     1  ZINC000918875053   -0.3700
     28 O28        -9.4075   -1.2787   52.2066 O.3     1  ZINC000918875053    0.1000
     29 H29       -13.3207   -1.5619   52.9660 H       1  ZINC000918875053    0.0900
     30 H30       -12.4075   -1.0944   51.5114 H       1  ZINC000918875053    0.0900
     31 H31       -11.8227   -2.4238   52.5403 H       1  ZINC000918875053    0.0800
     32 H32       -12.4776   -2.4906   57.2279 H       1  ZINC000918875053    0.1300
     33 H33       -10.7840   -2.2813   56.6824 H       1  ZINC000918875053    0.1100
     34 H34       -12.0151    0.6222   61.0728 H       1  ZINC000918875053    0.1400
     35 H35       -11.1813    1.1217   63.3340 H       1  ZINC000918875053    0.1400
     36 H36        -8.9630    0.3221   64.0356 H       1  ZINC000918875053    0.1400
     37 H37        -7.5703   -0.9815   62.4801 H       1  ZINC000918875053    0.1400
     38 H38        -9.9373    0.4897   57.7018 H       1  ZINC000918875053    0.1000
     39 H39       -11.3664    1.1499   58.5513 H       1  ZINC000918875053    0.1000
     40 H40        -6.1871    1.1257   52.3181 H       1  ZINC000918875053    0.1400
     41 H41        -6.0174    2.0563   49.9642 H       1  ZINC000918875053    0.1100
     42 H42        -7.7858    1.6254   49.6665 H       1  ZINC000918875053    0.1000
     43 H43        -8.4768    3.1381   51.5819 H       1  ZINC000918875053    0.1000
     44 H44        -6.7084    3.5690   51.8795 H       1  ZINC000918875053    0.1100
@<TRIPOS>BOND
     1     1     2    1
     2     1    29    1
     3     1    30    1
     4     1    31    1
     5     2     3    1
     6     2     4    1
     7     2    21    1
     8     4     5    1
     9     5     6    2
    10     5     7    1
    11     7     8    1
    12     7    20    1
    13     7     9    1
    14     9    10    1
    15     9    32    1
    16     9    33    1
    17    10    11    2
    18    10    12   am
    19    12    13    1
    20    12    20    1
    21    13    18   ar
    22    13    14   ar
    23    14    15   ar
    24    14    34    1
    25    15    16   ar
    26    15    35    1
    27    16    17   ar
    28    16    36    1
    29    17    18   ar
    30    17    37    1
    31    18    19    1
    32    20    38    1
    33    20    39    1
    34    21    28    1
    35    21    22    2
    36    22    23    1
    37    23    24    1
    38    23    27    2
    39    24    26    1
    40    24    25    1
    41    24    40    1
    42    25    26    1
    43    25    41    1
    44    25    42    1
    45    26    43    1
    46    26    44    1
    47    27    28    1
@<TRIPOS>SUBSTRUCTURE
     1 ZINC000918875053        1 TEMP              0 ****  ****    0 ROOT


##########                                Name:    ZINC000426805817
##########                DOCK_Rotatable_Bonds:                   6
##########                         Heavy_Atoms:                  26
##########                    Molecular_Weight:             412.286
##########                DOCK_Rotatable_Bonds:                   6
##########                       Formal_Charge:          -0.0100001
##########                     HBond_Acceptors:                   5
##########                        HBond_Donors:                   4
##########                         Heavy_Atoms:                  26
##########                          Grid_Score:          -31.947508
##########                     Grid_vdw_energy:          -29.676918
##########                      Grid_es_energy:           -2.270589
##########           Internal_energy_repulsive:            4.187216

@<TRIPOS>MOLECULE
ZINC000426805817
 44 47 1 0 0
SMALL
USER_CHARGES


@<TRIPOS>ATOM
      1 O1         -8.2447   -0.0794   59.1761 O.co2   1  ZINC000426805817   -0.6300
      2 C2         -9.3460    0.4103   59.3602 C.2     1  ZINC000426805817    0.5000
      3 O3         -9.6919    1.3898   58.7220 O.co2   1  ZINC000426805817   -0.6800
      4 C4        -10.2819   -0.1988   60.3721 C.3     1  ZINC000426805817   -0.0500
      5 H5        -11.1003    0.4927   60.5725 H       1  ZINC000426805817    0.1300
      6 C6        -10.8456   -1.5101   59.8210 C.3     1  ZINC000426805817   -0.0500
      7 C7        -12.2859   -1.6534   60.2406 C.2     1  ZINC000426805817   -0.1900
      8 C8        -12.8451   -1.1613   61.3572 C.2     1  ZINC000426805817    0.0500
      9 N9        -14.1723   -1.4914   61.3989 N.pl3   1  ZINC000426805817   -0.5900
     10 C10       -14.5083   -2.2230   60.2812 C.ar    1  ZINC000426805817    0.1100
     11 C11       -15.6942   -2.7959   59.8346 C.ar    1  ZINC000426805817   -0.1200
     12 C12       -15.7178   -3.4867   58.6430 C.ar    1  ZINC000426805817   -0.0700
     13 C13       -14.5662   -3.6188   57.8780 C.ar    1  ZINC000426805817   -0.1100
     14 Br14      -14.6259   -4.5722   56.2460 Br      1  ZINC000426805817   -0.0400
     15 C15       -13.3812   -3.0591   58.3012 C.ar    1  ZINC000426805817   -0.0400
     16 C16       -13.3428   -2.3510   59.5038 C.ar    1  ZINC000426805817   -0.1000
     17 N17        -9.5502   -0.4655   61.6177 N.4     1  ZINC000426805817   -0.4800
     18 H18       -10.1732   -0.8870   62.2901 H       1  ZINC000426805817    0.4000
     19 H19        -8.7835   -1.0938   61.4295 H       1  ZINC000426805817    0.4200
     20 C20        -9.0275    0.7965   62.1583 C.3     1  ZINC000426805817    0.0400
     21 C21        -9.7589    1.1391   63.4306 C.ar    1  ZINC000426805817   -0.1600
     22 C22        -9.2014    0.8185   64.6638 C.ar    1  ZINC000426805817    0.1100
     23 N23        -8.0293    0.2039   65.0433 N.pl3   1  ZINC000426805817   -0.5900
     24 C24        -7.9620    0.1327   66.4082 C.2     1  ZINC000426805817    0.0600
     25 C25        -9.0595    0.6841   66.9499 C.2     1  ZINC000426805817   -0.2000
     26 C26        -9.8982    1.1464   65.8415 C.ar    1  ZINC000426805817   -0.1100
     27 C27       -11.1360    1.7868   65.7628 C.ar    1  ZINC000426805817   -0.0400
     28 C28       -11.6653    2.0925   64.5406 C.ar    1  ZINC000426805817   -0.1500
     29 C29       -10.9795    1.7760   63.3762 C.ar    1  ZINC000426805817   -0.0700
     30 H30       -10.7830   -1.5037   58.7328 H       1  ZINC000426805817    0.1200
     31 H31       -10.2679   -2.3471   60.2132 H       1  ZINC000426805817    0.0900
     32 H32       -12.3245   -0.5896   62.1111 H       1  ZINC000426805817    0.1700
     33 H33       -14.7853   -1.2466   62.1098 H       1  ZINC000426805817    0.4200
     34 H34       -16.5956   -2.6996   60.4216 H       1  ZINC000426805817    0.1300
     35 H35       -16.6410   -3.9302   58.3005 H       1  ZINC000426805817    0.1400
     36 H36       -12.4875   -3.1637   57.7039 H       1  ZINC000426805817    0.1400
     37 H37        -7.9635    0.6887   62.3687 H       1  ZINC000426805817    0.1500
     38 H38        -9.1747    1.5930   61.4289 H       1  ZINC000426805817    0.1300
     39 H39        -7.3522   -0.1295   64.4340 H       1  ZINC000426805817    0.4300
     40 H40        -7.1468   -0.3028   66.9668 H       1  ZINC000426805817    0.1800
     41 H41        -9.2820    0.7703   68.0032 H       1  ZINC000426805817    0.1500
     42 H42       -11.6737    2.0396   66.6648 H       1  ZINC000426805817    0.1300
     43 H43       -12.6231    2.5881   64.4803 H       1  ZINC000426805817    0.1300
     44 H44       -11.4109    2.0240   62.4176 H       1  ZINC000426805817    0.1300
@<TRIPOS>BOND
     1     1     2   ar
     2     2     3   ar
     3     2     4    1
     4     4     5    1
     5     4     6    1
     6     4    17    1
     7     6     7    1
     8     6    30    1
     9     6    31    1
    10     7    16    1
    11     7     8    2
    12     8     9    1
    13     8    32    1
    14     9    10    1
    15     9    33    1
    16    10    16   ar
    17    10    11   ar
    18    11    12   ar
    19    11    34    1
    20    12    13   ar
    21    12    35    1
    22    13    14    1
    23    13    15   ar
    24    15    16   ar
    25    15    36    1
    26    17    18    1
    27    17    19    1
    28    17    20    1
    29    20    21    1
    30    20    37    1
    31    20    38    1
    32    21    29   ar
    33    21    22   ar
    34    22    26   ar
    35    22    23    1
    36    23    24    1
    37    23    39    1
    38    24    25    2
    39    24    40    1
    40    25    26    1
    41    25    41    1
    42    26    27   ar
    43    27    28   ar
    44    27    42    1
    45    28    29   ar
    46    28    43    1
    47    29    44    1
@<TRIPOS>SUBSTRUCTURE
     1 ZINC000426805817        1 TEMP              0 ****  ****    0 ROOT


##########                                Name:    ZINC001169875900
##########                DOCK_Rotatable_Bonds:                   9
##########                         Heavy_Atoms:                  24
##########                    Molecular_Weight:             329.399
##########                DOCK_Rotatable_Bonds:                   9
##########                       Formal_Charge:          -0.0500002
##########                     HBond_Acceptors:                   6
##########                        HBond_Donors:                   1
##########                         Heavy_Atoms:                  24
##########                          Grid_Score:          -31.910490
##########                     Grid_vdw_energy:          -32.486286
##########                      Grid_es_energy:            0.575796
##########           Internal_energy_repulsive:            8.126452

@<TRIPOS>MOLECULE
ZINC001169875900
 47 48 1 0 0
SMALL
USER_CHARGES


@<TRIPOS>ATOM
      1 C1        -11.2401   -1.8282   52.7859 C.3     1  ZINC001169875900   -0.1500
      2 C2        -10.9649   -0.3388   52.5698 C.3     1  ZINC001169875900   -0.1300
      3 C3         -9.4902   -0.1388   52.2149 C.3     1  ZINC001169875900    0.0700
      4 O4         -9.3075    1.1625   51.6536 O.3     1  ZINC001169875900   -0.3100
      5 C5         -8.0301    1.5591   51.4195 C.ar    1  ZINC001169875900    0.2700
      6 N6         -7.0300    0.7442   51.7080 N.ar    1  ZINC001169875900   -0.5000
      7 C7         -5.7727    1.0892   51.5033 C.ar    1  ZINC001169875900    0.0600
      8 C8         -5.4561    2.3284   50.9676 C.ar    1  ZINC001169875900    0.1400
      9 N9         -4.1203    2.6879   50.7536 N.pl3   1  ZINC001169875900   -0.7400
     10 C10        -3.2333    2.9236   51.8954 C.3     1  ZINC001169875900    0.1800
     11 C11        -1.8790    3.3592   51.3980 C.ar    1  ZINC001169875900    0.1000
     12 C12        -1.5908    4.7108   51.2957 C.ar    1  ZINC001169875900   -0.1200
     13 C13        -0.3438    5.1070   50.8377 C.ar    1  ZINC001169875900   -0.0800
     14 C14         0.5764    4.1287   50.4960 C.ar    1  ZINC001169875900   -0.1000
     15 C15         0.2181    2.7882   50.6240 C.ar    1  ZINC001169875900    0.0900
     16 C16         1.1898    1.7308   50.2631 C.2     1  ZINC001169875900    0.5200
     17 O17         2.0213    1.9384   49.4029 O.2     1  ZINC001169875900   -0.5000
     18 O18         1.1514    0.5389   50.8890 O.3     1  ZINC001169875900   -0.3300
     19 C19         2.2618   -0.3661   50.6520 C.3     1  ZINC001169875900    0.0600
     20 C20         3.5261    0.1959   51.3053 C.3     1  ZINC001169875900   -0.1500
     21 N21        -0.9853    2.4514   51.0719 N.ar    1  ZINC001169875900   -0.4200
     22 C22        -6.4852    3.2116   50.6455 C.ar    1  ZINC001169875900   -0.1200
     23 C23        -7.7902    2.8139   50.8746 C.ar    1  ZINC001169875900   -0.1000
     24 C24        -8.9372    3.7333   50.5428 C.3     1  ZINC001169875900   -0.1000
     25 H25       -10.6171   -2.1984   53.6000 H       1  ZINC001169875900    0.0600
     26 H26       -12.2908   -1.9706   53.0388 H       1  ZINC001169875900    0.0600
     27 H27       -11.0086   -2.3767   51.8729 H       1  ZINC001169875900    0.0600
     28 H28       -11.1965    0.2097   53.4829 H       1  ZINC001169875900    0.0700
     29 H29       -11.5880    0.0315   51.7557 H       1  ZINC001169875900    0.0700
     30 H30        -9.1855   -0.8934   51.4896 H       1  ZINC001169875900    0.0600
     31 H31        -8.8835   -0.2346   53.1154 H       1  ZINC001169875900    0.0600
     32 H32        -4.9817    0.3988   51.7562 H       1  ZINC001169875900    0.1500
     33 H33        -3.7820    2.7809   49.8493 H       1  ZINC001169875900    0.4000
     34 H34        -3.6558    3.7037   52.5288 H       1  ZINC001169875900    0.0800
     35 H35        -3.1303    2.0040   52.4715 H       1  ZINC001169875900    0.0800
     36 H36        -2.3306    5.4483   51.5700 H       1  ZINC001169875900    0.1500
     37 H37        -0.0951    6.1543   50.7494 H       1  ZINC001169875900    0.1500
     38 H38         1.5572    4.4014   50.1352 H       1  ZINC001169875900    0.1500
     39 H39         2.0336   -1.3414   51.0818 H       1  ZINC001169875900    0.0700
     40 H40         2.4229   -0.4705   49.5791 H       1  ZINC001169875900    0.0700
     41 H41         3.7543    1.1713   50.8755 H       1  ZINC001169875900    0.0700
     42 H42         3.3650    0.3002   52.3782 H       1  ZINC001169875900    0.0700
     43 H43         4.3597   -0.4835   51.1274 H       1  ZINC001169875900    0.0800
     44 H44        -6.2688    4.1835   50.2272 H       1  ZINC001169875900    0.1400
     45 H45        -9.2588    3.5573   49.5163 H       1  ZINC001169875900    0.0700
     46 H46        -8.6153    4.7691   50.6501 H       1  ZINC001169875900    0.0700
     47 H47        -9.7672    3.5385   51.2220 H       1  ZINC001169875900    0.0700
@<TRIPOS>BOND
     1     1     2    1
     2     1    25    1
     3     1    26    1
     4     1    27    1
     5     2     3    1
     6     2    28    1
     7     2    29    1
     8     3     4    1
     9     3    30    1
    10     3    31    1
    11     4     5    1
    12     5    23   ar
    13     5     6   ar
    14     6     7   ar
    15     7     8   ar
    16     7    32    1
    17     8     9    1
    18     8    22   ar
    19     9    10    1
    20     9    33    1
    21    10    11    1
    22    10    34    1
    23    10    35    1
    24    11    21   ar
    25    11    12   ar
    26    12    13   ar
    27    12    36    1
    28    13    14   ar
    29    13    37    1
    30    14    15   ar
    31    14    38    1
    32    15    16    1
    33    15    21   ar
    34    16    17    2
    35    16    18    1
    36    18    19    1
    37    19    20    1
    38    19    39    1
    39    19    40    1
    40    20    41    1
    41    20    42    1
    42    20    43    1
    43    22    23   ar
    44    22    44    1
    45    23    24    1
    46    24    45    1
    47    24    46    1
    48    24    47    1
@<TRIPOS>SUBSTRUCTURE
     1 ZINC001169875900        1 TEMP              0 ****  ****    0 ROOT


##########                                Name:    ZINC000465392830
##########                DOCK_Rotatable_Bonds:                   8
##########                         Heavy_Atoms:                  29
##########                    Molecular_Weight:             419.588
##########                DOCK_Rotatable_Bonds:                   8
##########                       Formal_Charge:           0.0199996
##########                     HBond_Acceptors:                   7
##########                        HBond_Donors:                   0
##########                         Heavy_Atoms:                  29
##########                          Grid_Score:          -31.910078
##########                     Grid_vdw_energy:          -31.162024
##########                      Grid_es_energy:           -0.748055
##########           Internal_energy_repulsive:           34.791027

@<TRIPOS>MOLECULE
ZINC000465392830
 62 64 1 0 0
SMALL
USER_CHARGES


@<TRIPOS>ATOM
      1 C1         -8.9619    1.6048   55.5688 C.3     1  ZINC000465392830    0.0400
      2 O2         -9.2228    2.8992   54.9648 O.3     1  ZINC000465392830   -0.3600
      3 C3        -10.0652    2.9254   53.9200 C.2     1  ZINC000465392830    0.4600
      4 O4        -11.2465    3.1034   54.1008 O.2     1  ZINC000465392830   -0.4900
      5 C5         -9.5373    2.7328   52.5217 C.3     1  ZINC000465392830    0.1500
      6 H6        -10.2904    3.0397   51.7958 H       1  ZINC000465392830    0.1100
      7 C7         -8.2514    3.5635   52.3270 C.3     1  ZINC000465392830   -0.1100
      8 C8         -7.3627    2.6306   51.4624 C.3     1  ZINC000465392830   -0.0900
      9 H9         -7.6232    2.7110   50.4070 H       1  ZINC000465392830    0.1000
     10 C10        -5.8783    2.9291   51.6821 C.3     1  ZINC000465392830   -0.0800
     11 C11        -5.0357    1.9873   50.8196 C.3     1  ZINC000465392830   -0.1200
     12 C12        -3.5513    2.2856   51.0393 C.3     1  ZINC000465392830   -0.1200
     13 C13        -3.2589    3.7353   50.6467 C.3     1  ZINC000465392830   -0.1200
     14 C14        -4.1015    4.6770   51.5091 C.3     1  ZINC000465392830   -0.1200
     15 C15        -5.5859    4.3786   51.2895 C.3     1  ZINC000465392830   -0.1200
     16 C16        -7.7384    1.2362   52.0226 C.3     1  ZINC000465392830    0.1000
     17 N17        -9.1851    1.3211   52.3103 N.am    1  ZINC000465392830   -0.6100
     18 C18       -10.0365    0.2781   52.3716 C.2     1  ZINC000465392830    0.5400
     19 O19        -9.6304   -0.8483   52.1786 O.2     1  ZINC000465392830   -0.5300
     20 C20       -11.4930    0.5115   52.6802 C.3     1  ZINC000465392830   -0.1300
     21 C21       -12.3143   -0.6873   52.2011 C.3     1  ZINC000465392830   -0.0600
     22 C22       -13.3449   -1.0387   53.2430 C.ar    1  ZINC000465392830   -0.2000
     23 C23       -14.5849   -0.4190   53.2494 C.ar    1  ZINC000465392830    0.2000
     24 C24       -14.9241    0.6191   52.2110 C.3     1  ZINC000465392830   -0.1100
     25 N25       -15.4669   -0.7502   54.1777 N.ar    1  ZINC000465392830   -0.5000
     26 C26       -15.1758   -1.6627   55.0940 C.ar    1  ZINC000465392830    0.3000
     27 S27       -16.3807   -2.0736   56.3122 S.3     1  ZINC000465392830    0.0000
     28 C28       -15.4871   -3.3621   57.2162 C.3     1  ZINC000465392830   -0.1400
     29 N29       -13.9997   -2.2739   55.1151 N.ar    1  ZINC000465392830   -0.5300
     30 C30       -13.0753   -1.9925   54.2120 C.ar    1  ZINC000465392830    0.2000
     31 C31       -11.7408   -2.6919   54.2432 C.3     1  ZINC000465392830   -0.1100
     32 H32        -9.8963    1.1797   55.9352 H       1  ZINC000465392830    0.0600
     33 H33        -8.5264    0.9377   54.8247 H       1  ZINC000465392830    0.0600
     34 H34        -8.2669    1.7251   56.3998 H       1  ZINC000465392830    0.1000
     35 H35        -8.4679    4.4906   51.7963 H       1  ZINC000465392830    0.1000
     36 H36        -7.7760    3.7689   53.2861 H       1  ZINC000465392830    0.0800
     37 H37        -5.6293    2.7800   52.7328 H       1  ZINC000465392830    0.0800
     38 H38        -5.2440    0.9546   51.0993 H       1  ZINC000465392830    0.0600
     39 H39        -5.2846    2.1364   49.7689 H       1  ZINC000465392830    0.0700
     40 H40        -3.3022    2.1365   52.0900 H       1  ZINC000465392830    0.0600
     41 H41        -2.9509    1.6146   50.4249 H       1  ZINC000465392830    0.0600
     42 H42        -2.2013    3.9478   50.8033 H       1  ZINC000465392830    0.0600
     43 H43        -3.5078    3.8843   49.5960 H       1  ZINC000465392830    0.0600
     44 H44        -3.8525    4.5280   52.5598 H       1  ZINC000465392830    0.0600
     45 H45        -3.8932    5.7098   51.2294 H       1  ZINC000465392830    0.0600
     46 H46        -5.8349    4.5278   50.2388 H       1  ZINC000465392830    0.0700
     47 H47        -6.1862    5.0497   51.9039 H       1  ZINC000465392830    0.0600
     48 H48        -7.5459    0.4638   51.2780 H       1  ZINC000465392830    0.0900
     49 H49        -7.1802    1.0313   52.9361 H       1  ZINC000465392830    0.0800
     50 H50       -11.6215    0.6335   53.7558 H       1  ZINC000465392830    0.1000
     51 H51       -11.8328    1.4123   52.1692 H       1  ZINC000465392830    0.1000
     52 H52       -12.8143   -0.4347   51.2661 H       1  ZINC000465392830    0.0900
     53 H53       -11.6539   -1.5396   52.0413 H       1  ZINC000465392830    0.0900
     54 H54       -15.3767    0.1337   51.3464 H       1  ZINC000465392830    0.0900
     55 H55       -15.6260    1.3388   52.6325 H       1  ZINC000465392830    0.0900
     56 H56       -14.0150    1.1357   51.9033 H       1  ZINC000465392830    0.0900
     57 H57       -15.2458   -4.1808   56.5381 H       1  ZINC000465392830    0.0900
     58 H58       -14.5666   -2.9466   57.6260 H       1  ZINC000465392830    0.0900
     59 H59       -16.1109   -3.7350   58.0285 H       1  ZINC000465392830    0.1100
     60 H60       -11.7915   -3.5982   53.6398 H       1  ZINC000465392830    0.0900
     61 H61       -10.9742   -2.0298   53.8408 H       1  ZINC000465392830    0.0900
     62 H62       -11.4917   -2.9535   55.2716 H       1  ZINC000465392830    0.0800
@<TRIPOS>BOND
     1     1     2    1
     2     1    32    1
     3     1    33    1
     4     1    34    1
     5     2     3    1
     6     3     4    2
     7     3     5    1
     8     5     6    1
     9     5    17    1
    10     5     7    1
    11     7     8    1
    12     7    35    1
    13     7    36    1
    14     8     9    1
    15     8    10    1
    16     8    16    1
    17    10    15    1
    18    10    11    1
    19    10    37    1
    20    11    12    1
    21    11    38    1
    22    11    39    1
    23    12    13    1
    24    12    40    1
    25    12    41    1
    26    13    14    1
    27    13    42    1
    28    13    43    1
    29    14    15    1
    30    14    44    1
    31    14    45    1
    32    15    46    1
    33    15    47    1
    34    16    17    1
    35    16    48    1
    36    16    49    1
    37    17    18   am
    38    18    19    2
    39    18    20    1
    40    20    21    1
    41    20    50    1
    42    20    51    1
    43    21    22    1
    44    21    52    1
    45    21    53    1
    46    22    30   ar
    47    22    23   ar
    48    23    24    1
    49    23    25   ar
    50    24    54    1
    51    24    55    1
    52    24    56    1
    53    25    26   ar
    54    26    27    1
    55    26    29   ar
    56    27    28    1
    57    28    57    1
    58    28    58    1
    59    28    59    1
    60    29    30   ar
    61    30    31    1
    62    31    60    1
    63    31    61    1
    64    31    62    1
@<TRIPOS>SUBSTRUCTURE
     1 ZINC000465392830        1 TEMP              0 ****  ****    0 ROOT


##########                                Name:    ZINC000533131987
##########                DOCK_Rotatable_Bonds:                  11
##########                         Heavy_Atoms:                  30
##########                    Molecular_Weight:             419.403
##########                DOCK_Rotatable_Bonds:                  11
##########                       Formal_Charge:                0.01
##########                     HBond_Acceptors:                   9
##########                        HBond_Donors:                   3
##########                         Heavy_Atoms:                  30
##########                          Grid_Score:          -31.901953
##########                     Grid_vdw_energy:          -29.796782
##########                      Grid_es_energy:           -2.105172
##########           Internal_energy_repulsive:           26.562962

@<TRIPOS>MOLECULE
ZINC000533131987
 50 52 1 0 0
SMALL
USER_CHARGES


@<TRIPOS>ATOM
      1 O1         -7.1723    1.5394   57.7755 O.2     1  ZINC000533131987   -0.5700
      2 C2         -7.9846    2.4441   57.7590 C.2     1  ZINC000533131987    0.7100
      3 N3         -7.7200    3.5750   57.0753 N.am    1  ZINC000533131987   -0.7400
      4 C4         -6.4512    3.7168   56.3570 C.3     1  ZINC000533131987    0.1400
      5 C5         -6.7304    4.0051   54.8806 C.3     1  ZINC000533131987   -0.0900
      6 H6         -7.6819    3.5555   54.5962 H       1  ZINC000533131987    0.0900
      7 C7         -6.7949    5.5177   54.6597 C.3     1  ZINC000533131987    0.0800
      8 O8         -7.4762    5.7915   53.4337 O.3     1  ZINC000533131987   -0.5600
      9 C9         -5.6099    3.4119   54.0242 C.3     1  ZINC000533131987   -0.0900
     10 C10        -6.2089    2.6630   52.8617 C.ar    1  ZINC000533131987    0.0000
     11 C11        -7.2381    1.7653   53.0745 C.ar    1  ZINC000533131987   -0.1100
     12 C12        -7.7876    1.0782   52.0080 C.ar    1  ZINC000533131987   -0.0800
     13 C13        -7.3082    1.2894   50.7290 C.ar    1  ZINC000533131987   -0.1300
     14 C14        -6.2793    2.1880   50.5160 C.ar    1  ZINC000533131987   -0.0700
     15 C15        -5.7328    2.8780   51.5816 C.ar    1  ZINC000533131987   -0.1700
     16 C16        -4.6113    3.8576   51.3494 C.3     1  ZINC000533131987    0.5100
     17 F17        -4.2104    3.7987   50.0105 F       1  ZINC000533131987   -0.1800
     18 F18        -5.0529    5.1512   51.6475 F       1  ZINC000533131987   -0.1700
     19 F19        -3.5296    3.5323   52.1750 F       1  ZINC000533131987   -0.1800
     20 N20        -9.1519    2.3136   58.4200 N.am    1  ZINC000533131987   -0.6900
     21 C21        -9.4267    1.1391   59.1299 C.ar    1  ZINC000533131987    0.1600
     22 C22        -9.2205    1.0932   60.5033 C.ar    1  ZINC000533131987   -0.1000
     23 C23        -9.4904   -0.0645   61.2092 C.ar    1  ZINC000533131987   -0.1000
     24 C24        -9.9664   -1.1820   60.5547 C.ar    1  ZINC000533131987   -0.1000
     25 C25       -10.1768   -1.1460   59.1749 C.ar    1  ZINC000533131987    0.0000
     26 C26       -10.6872   -2.3418   58.4711 C.2     1  ZINC000533131987    0.2300
     27 N27       -11.3954   -2.3366   57.3664 N.2     1  ZINC000533131987   -0.4700
     28 C28       -11.6732   -3.6050   57.0291 C.2     1  ZINC000533131987   -0.0400
     29 C29       -11.1186   -4.4087   57.9548 C.2     1  ZINC000533131987   -0.0700
     30 O30       -10.4986   -3.6171   58.8522 O.3     1  ZINC000533131987   -0.2000
     31 C31        -9.9100    0.0235   58.4639 C.ar    1  ZINC000533131987   -0.1000
     32 H32        -8.3697    4.2951   57.0590 H       1  ZINC000533131987    0.4000
     33 H33        -5.8805    4.5402   56.7864 H       1  ZINC000533131987    0.0700
     34 H34        -5.8787    2.7933   56.4448 H       1  ZINC000533131987    0.0800
     35 H35        -7.3325    5.9830   55.4859 H       1  ZINC000533131987    0.0400
     36 H36        -5.7835    5.9213   54.6113 H       1  ZINC000533131987    0.0600
     37 H37        -7.5019    5.0427   52.8223 H       1  ZINC000533131987    0.3800
     38 H38        -4.9744    4.2148   53.6504 H       1  ZINC000533131987    0.0800
     39 H39        -5.0138    2.7282   54.6285 H       1  ZINC000533131987    0.0900
     40 H40        -7.6127    1.6004   54.0740 H       1  ZINC000533131987    0.1300
     41 H41        -8.5914    0.3762   52.1745 H       1  ZINC000533131987    0.1300
     42 H42        -7.7370    0.7521   49.8960 H       1  ZINC000533131987    0.1300
     43 H43        -5.9045    2.3527   49.5167 H       1  ZINC000533131987    0.1300
     44 H44        -9.8016    3.0337   58.4036 H       1  ZINC000533131987    0.4100
     45 H45        -8.8478    1.9647   61.0210 H       1  ZINC000533131987    0.1500
     46 H46        -9.3279   -0.0943   62.2765 H       1  ZINC000533131987    0.1400
     47 H47       -10.1757   -2.0846   61.1095 H       1  ZINC000533131987    0.1300
     48 H48       -12.2412   -3.9242   56.1677 H       1  ZINC000533131987    0.1900
     49 H49       -11.1593   -5.4877   57.9730 H       1  ZINC000533131987    0.2200
     50 H50       -10.0709    0.0573   57.3965 H       1  ZINC000533131987    0.1400
@<TRIPOS>BOND
     1     1     2    2
     2     2     3   am
     3     2    20   am
     4     3     4    1
     5     3    32    1
     6     4     5    1
     7     4    33    1
     8     4    34    1
     9     5     6    1
    10     5     7    1
    11     5     9    1
    12     7     8    1
    13     7    35    1
    14     7    36    1
    15     8    37    1
    16     9    10    1
    17     9    38    1
    18     9    39    1
    19    10    15   ar
    20    10    11   ar
    21    11    12   ar
    22    11    40    1
    23    12    13   ar
    24    12    41    1
    25    13    14   ar
    26    13    42    1
    27    14    15   ar
    28    14    43    1
    29    15    16    1
    30    16    17    1
    31    16    18    1
    32    16    19    1
    33    20    21    1
    34    20    44    1
    35    21    31   ar
    36    21    22   ar
    37    22    23   ar
    38    22    45    1
    39    23    24   ar
    40    23    46    1
    41    24    25   ar
    42    24    47    1
    43    25    26    1
    44    25    31   ar
    45    26    30    1
    46    26    27    2
    47    27    28    1
    48    28    29    2
    49    28    48    1
    50    29    30    1
    51    29    49    1
    52    31    50    1
@<TRIPOS>SUBSTRUCTURE
     1 ZINC000533131987        1 TEMP              0 ****  ****    0 ROOT


##########                                Name:    ZINC001289445798
##########                DOCK_Rotatable_Bonds:                  10
##########                         Heavy_Atoms:                  25
##########                    Molecular_Weight:             352.434
##########                DOCK_Rotatable_Bonds:                  10
##########                       Formal_Charge:          0.00999932
##########                     HBond_Acceptors:                   8
##########                        HBond_Donors:                   2
##########                         Heavy_Atoms:                  25
##########                          Grid_Score:          -31.897526
##########                     Grid_vdw_energy:          -27.185055
##########                      Grid_es_energy:           -4.712471
##########           Internal_energy_repulsive:           22.335001

@<TRIPOS>MOLECULE
ZINC001289445798
 53 54 1 0 0
SMALL
USER_CHARGES


@<TRIPOS>ATOM
      1 C1        -14.3337   -2.4901   60.6393 C.3     1  ZINC001289445798   -0.1500
      2 C2        -13.5225   -1.7373   59.5829 C.3     1  ZINC001289445798    0.0600
      3 O3        -12.5189   -2.6023   59.0473 O.3     1  ZINC001289445798   -0.3700
      4 C4        -11.7818   -2.0355   57.9623 C.3     1  ZINC001289445798    0.1100
      5 H5        -11.0284   -2.7468   57.6240 H       1  ZINC001289445798    0.0700
      6 C6        -11.0963   -0.7494   58.4282 C.3     1  ZINC001289445798   -0.1400
      7 C7        -10.1546   -1.0644   59.5618 C.2     1  ZINC001289445798    0.5400
      8 O8         -9.4026   -2.0123   59.4798 O.2     1  ZINC001289445798   -0.5200
      9 N9        -10.1483   -0.2928   60.6668 N.am    1  ZINC001289445798   -0.6200
     10 C10        -9.2803   -0.4809   61.8384 C.3     1  ZINC001289445798    0.1000
     11 C11        -9.6057    0.6504   62.8362 C.3     1  ZINC001289445798    0.1400
     12 H12       -10.3201    0.3100   63.5857 H       1  ZINC001289445798    0.1200
     13 N13        -8.3838    1.1458   63.4747 N.am    1  ZINC001289445798   -0.7200
     14 C14        -7.9423    0.5794   64.6153 C.2     1  ZINC001289445798    0.6000
     15 O15        -8.5592   -0.3419   65.1153 O.2     1  ZINC001289445798   -0.5100
     16 C16        -6.7139    1.0758   65.2558 C.2     1  ZINC001289445798   -0.0500
     17 C17        -6.2484    0.7562   66.5194 C.2     1  ZINC001289445798   -0.1400
     18 C18        -5.0583    1.4721   66.6673 C.2     1  ZINC001289445798    0.0000
     19 N19        -4.8591    2.1514   65.5668 N.2     1  ZINC001289445798   -0.2700
     20 N20        -5.8014    1.9397   64.7200 N.pl3   1  ZINC001289445798   -0.3800
     21 C21       -10.2375    1.7409   61.9311 C.3     1  ZINC001289445798    0.0700
     22 H22        -9.4673    2.3377   61.4427 H       1  ZINC001289445798    0.0900
     23 O23       -11.1294    2.5720   62.6769 O.3     1  ZINC001289445798   -0.3700
     24 C24       -11.3031    3.8790   62.1262 C.3     1  ZINC001289445798    0.0300
     25 C25       -11.0062    0.8837   60.8981 C.3     1  ZINC001289445798    0.0800
     26 C26       -12.7356   -1.7161   56.8094 C.3     1  ZINC001289445798   -0.1100
     27 C27       -11.9258   -1.3795   55.5557 C.3     1  ZINC001289445798   -0.1500
     28 C28       -13.6245   -2.9301   56.5317 C.3     1  ZINC001289445798   -0.1500
     29 H29       -13.6714   -2.8179   61.4405 H       1  ZINC001289445798    0.0600
     30 H30       -15.0992   -1.8304   61.0477 H       1  ZINC001289445798    0.0700
     31 H31       -14.8084   -3.3583   60.1823 H       1  ZINC001289445798    0.0600
     32 H32       -14.1847   -1.4095   58.7816 H       1  ZINC001289445798    0.0500
     33 H33       -13.0477   -0.8691   60.0400 H       1  ZINC001289445798    0.0500
     34 H34       -10.5357   -0.3160   57.5999 H       1  ZINC001289445798    0.1100
     35 H35       -11.8496   -0.0388   58.7683 H       1  ZINC001289445798    0.1000
     36 H36        -9.4815   -1.4490   62.2971 H       1  ZINC001289445798    0.0800
     37 H37        -8.2342   -0.4209   61.5381 H       1  ZINC001289445798    0.0800
     38 H38        -7.8924    1.8813   63.0767 H       1  ZINC001289445798    0.4000
     39 H39        -6.7078    0.0939   67.2383 H       1  ZINC001289445798    0.1700
     40 H40        -4.4166    1.4664   67.5360 H       1  ZINC001289445798    0.1900
     41 H41        -5.8598    2.3379   63.8374 H       1  ZINC001289445798    0.4400
     42 H42       -11.9937    4.4471   62.7496 H       1  ZINC001289445798    0.0900
     43 H43       -10.3407    4.3897   62.0919 H       1  ZINC001289445798    0.0400
     44 H44       -11.7075    3.7975   61.1173 H       1  ZINC001289445798    0.0500
     45 H45       -11.1483    1.4417   59.9727 H       1  ZINC001289445798    0.0900
     46 H46       -11.9679    0.5711   61.3051 H       1  ZINC001289445798    0.0900
     47 H47       -13.3590   -0.8636   57.0791 H       1  ZINC001289445798    0.0800
     48 H48       -11.3025   -2.2321   55.2860 H       1  ZINC001289445798    0.0600
     49 H49       -12.6054   -1.1521   54.7344 H       1  ZINC001289445798    0.0600
     50 H50       -11.2926   -0.5146   55.7535 H       1  ZINC001289445798    0.0600
     51 H51       -14.2720   -3.1102   57.3898 H       1  ZINC001289445798    0.0600
     52 H52       -14.2353   -2.7390   55.6494 H       1  ZINC001289445798    0.0600
     53 H53       -12.9994   -3.8060   56.3581 H       1  ZINC001289445798    0.0500
@<TRIPOS>BOND
     1     1     2    1
     2     1    29    1
     3     1    30    1
     4     1    31    1
     5     2     3    1
     6     2    32    1
     7     2    33    1
     8     3     4    1
     9     4     5    1
    10     4     6    1
    11     4    26    1
    12     6     7    1
    13     6    34    1
    14     6    35    1
    15     7     8    2
    16     7     9   am
    17     9    25    1
    18     9    10    1
    19    10    11    1
    20    10    36    1
    21    10    37    1
    22    11    12    1
    23    11    13    1
    24    11    21    1
    25    13    14   am
    26    13    38    1
    27    14    15    2
    28    14    16    1
    29    16    20    1
    30    16    17    2
    31    17    18    1
    32    17    39    1
    33    18    19    2
    34    18    40    1
    35    19    20    1
    36    20    41    1
    37    21    22    1
    38    21    23    1
    39    21    25    1
    40    23    24    1
    41    24    42    1
    42    24    43    1
    43    24    44    1
    44    25    45    1
    45    25    46    1
    46    26    27    1
    47    26    28    1
    48    26    47    1
    49    27    48    1
    50    27    49    1
    51    27    50    1
    52    28    51    1
    53    28    52    1
    54    28    53    1
@<TRIPOS>SUBSTRUCTURE
     1 ZINC001289445798        1 TEMP              0 ****  ****    0 ROOT


##########                                Name:    ZINC000440379747
##########                DOCK_Rotatable_Bonds:                   8
##########                         Heavy_Atoms:                  27
##########                    Molecular_Weight:             394.452
##########                DOCK_Rotatable_Bonds:                   8
##########                       Formal_Charge:           0.0199995
##########                     HBond_Acceptors:                  10
##########                        HBond_Donors:                   3
##########                         Heavy_Atoms:                  27
##########                          Grid_Score:          -31.881939
##########                     Grid_vdw_energy:          -27.272663
##########                      Grid_es_energy:           -4.609276
##########           Internal_energy_repulsive:           16.831795

@<TRIPOS>MOLECULE
ZINC000440379747
 49 51 1 0 0
SMALL
USER_CHARGES


@<TRIPOS>ATOM
      1 C1        -12.0612   -1.1619   54.4931 C.3     1  ZINC000440379747   -0.1800
      2 C2        -11.5628   -1.3578   55.9018 C.2     1  ZINC000440379747    0.5200
      3 O3        -11.5048   -2.4733   56.3748 O.2     1  ZINC000440379747   -0.5200
      4 N4        -11.1818   -0.2938   56.6360 N.am    1  ZINC000440379747   -0.5500
      5 C5        -11.2068    1.0970   56.1754 C.3     1  ZINC000440379747    0.1100
      6 C6        -10.6848    1.9244   57.3613 C.3     1  ZINC000440379747   -0.0900
      7 C7        -10.3943    0.9045   58.4393 C.ar    1  ZINC000440379747   -0.1100
      8 C8         -9.9067    1.0587   59.7217 C.ar    1  ZINC000440379747   -0.0700
      9 C9         -9.7229   -0.0522   60.5353 C.ar    1  ZINC000440379747    0.1200
     10 N10        -9.2297    0.1022   61.8346 N.am    1  ZINC000440379747   -0.6400
     11 C11       -10.0699    0.0376   62.8864 C.2     1  ZINC000440379747    0.5100
     12 O12       -11.2547   -0.1545   62.7058 O.2     1  ZINC000440379747   -0.4900
     13 C13        -9.5431    0.2025   64.2740 C.2     1  ZINC000440379747    0.5200
     14 O14        -8.8393   -0.6573   64.7621 O.2     1  ZINC000440379747   -0.5100
     15 N15        -9.8492    1.3063   64.9843 N.am    1  ZINC000440379747   -0.5800
     16 C16       -10.6895    2.4236   64.5162 C.3     1  ZINC000440379747    0.1000
     17 C17       -11.2363    3.0774   65.8096 C.3     1  ZINC000440379747   -0.1300
     18 C18       -10.0184    2.9495   66.7623 C.3     1  ZINC000440379747   -0.1600
     19 C19        -9.4057    1.5925   66.3564 C.3     1  ZINC000440379747    0.1500
     20 H20        -9.7523    0.8119   67.0337 H       1  ZINC000440379747    0.1000
     21 C21        -7.8787    1.6775   66.3987 C.3     1  ZINC000440379747   -0.6500
     22 S22        -7.2432    0.5246   67.6467 S.o2    1  ZINC000440379747    2.6200
     23 N23        -5.6187    0.4359   67.3381 N.am    1  ZINC000440379747   -1.2500
     24 O24        -7.3228    1.1000   68.9435 O.2     1  ZINC000440379747   -0.9500
     25 O25        -7.7193   -0.7910   67.3984 O.2     1  ZINC000440379747   -0.9500
     26 C26       -10.0321   -1.3174   60.0518 C.ar    1  ZINC000440379747   -0.1000
     27 C27       -10.5186   -1.4689   58.7717 C.ar    1  ZINC000440379747   -0.1400
     28 C28       -10.7101   -0.3546   57.9524 C.ar    1  ZINC000440379747    0.1400
     29 H29       -12.3207   -2.1286   54.0617 H       1  ZINC000440379747    0.1000
     30 H30       -12.9428   -0.5211   54.5055 H       1  ZINC000440379747    0.1000
     31 H31       -11.2804   -0.6942   53.8934 H       1  ZINC000440379747    0.1000
     32 H32       -10.5538    1.2208   55.3114 H       1  ZINC000440379747    0.0900
     33 H33       -12.2253    1.3945   55.9261 H       1  ZINC000440379747    0.0900
     34 H34        -9.7734    2.4539   57.0834 H       1  ZINC000440379747    0.0900
     35 H35       -11.4463    2.6276   57.6984 H       1  ZINC000440379747    0.1000
     36 H36        -9.6676    2.0443   60.0928 H       1  ZINC000440379747    0.1400
     37 H37        -8.2829    0.2558   61.9788 H       1  ZINC000440379747    0.4200
     38 H38       -10.0900    3.1392   63.9536 H       1  ZINC000440379747    0.0800
     39 H39       -11.5101    2.0503   63.9035 H       1  ZINC000440379747    0.1000
     40 H40       -11.4920    4.1234   65.6407 H       1  ZINC000440379747    0.1000
     41 H41       -12.0933    2.5246   66.1947 H       1  ZINC000440379747    0.0800
     42 H42        -9.3109    3.7616   66.5950 H       1  ZINC000440379747    0.1000
     43 H43       -10.3431    2.9276   67.8027 H       1  ZINC000440379747    0.1000
     44 H44        -7.4730    1.4152   65.4216 H       1  ZINC000440379747    0.1500
     45 H45        -7.5784    2.6932   66.6560 H       1  ZINC000440379747    0.1400
     46 H46        -5.3052    0.1248   66.4744 H       1  ZINC000440379747    0.4100
     47 H47        -4.9804    0.6949   68.0211 H       1  ZINC000440379747    0.4200
     48 H48        -9.8905   -2.1839   60.6805 H       1  ZINC000440379747    0.1400
     49 H49       -10.7568   -2.4550   58.4012 H       1  ZINC000440379747    0.1500
@<TRIPOS>BOND
     1     1     2    1
     2     1    29    1
     3     1    30    1
     4     1    31    1
     5     2     3    2
     6     2     4   am
     7     4    28    1
     8     4     5    1
     9     5     6    1
    10     5    32    1
    11     5    33    1
    12     6     7    1
    13     6    34    1
    14     6    35    1
    15     7    28   ar
    16     7     8   ar
    17     8     9   ar
    18     8    36    1
    19     9    10    1
    20     9    26   ar
    21    10    11   am
    22    10    37    1
    23    11    12    2
    24    11    13    1
    25    13    14    2
    26    13    15   am
    27    15    19    1
    28    15    16    1
    29    16    17    1
    30    16    38    1
    31    16    39    1
    32    17    18    1
    33    17    40    1
    34    17    41    1
    35    18    19    1
    36    18    42    1
    37    18    43    1
    38    19    20    1
    39    19    21    1
    40    21    22    1
    41    21    44    1
    42    21    45    1
    43    22    23   am
    44    22    24    2
    45    22    25    2
    46    23    46    1
    47    23    47    1
    48    26    27   ar
    49    26    48    1
    50    27    28   ar
    51    27    49    1
@<TRIPOS>SUBSTRUCTURE
     1 ZINC000440379747        1 TEMP              0 ****  ****    0 ROOT


##########                                Name:    ZINC001570985666
##########                DOCK_Rotatable_Bonds:                   7
##########                         Heavy_Atoms:                  26
##########                    Molecular_Weight:             357.415
##########                DOCK_Rotatable_Bonds:                   7
##########                       Formal_Charge:          -0.0100001
##########                     HBond_Acceptors:                   9
##########                        HBond_Donors:                   3
##########                         Heavy_Atoms:                  26
##########                          Grid_Score:          -31.879852
##########                     Grid_vdw_energy:          -30.598410
##########                      Grid_es_energy:           -1.281443
##########           Internal_energy_repulsive:            9.340438

@<TRIPOS>MOLECULE
ZINC001570985666
 49 52 1 0 0
SMALL
USER_CHARGES


@<TRIPOS>ATOM
      1 C1        -12.0961    0.6245   57.2823 C.3     1  ZINC001570985666   -0.1600
      2 C2        -10.5718    0.7151   57.1860 C.3     1  ZINC001570985666    0.1300
      3 H3        -10.1309   -0.2674   57.3540 H       1  ZINC001570985666    0.0800
      4 C4        -10.0384    1.7159   58.2327 C.3     1  ZINC001570985666    0.1400
      5 H5        -10.8151    2.4250   58.5191 H       1  ZINC001570985666    0.1100
      6 N6         -9.5240    1.0104   59.4091 N.am    1  ZINC001570985666   -0.7200
      7 C7         -9.5363    1.6126   60.6147 C.2     1  ZINC001570985666    0.6000
      8 O8         -9.9733    2.7421   60.7259 O.2     1  ZINC001570985666   -0.5300
      9 C9         -9.0207    0.9025   61.7981 C.2     1  ZINC001570985666   -0.2300
     10 C10        -8.4355   -0.3451   61.8156 C.2     1  ZINC001570985666    0.0700
     11 N11        -8.1005   -0.6364   63.0883 N.pl3   1  ZINC001570985666   -0.5200
     12 C12        -8.4612    0.4089   63.9023 C.2     1  ZINC001570985666    0.0600
     13 C13        -8.2619    0.4729   65.3675 C.2     1  ZINC001570985666    0.2500
     14 N14        -8.6052    1.4648   66.1674 N.2     1  ZINC001570985666   -0.3100
     15 N15        -8.2637    1.1397   67.3668 N.pl3   1  ZINC001570985666   -0.2200
     16 N16        -7.7157   -0.0249   67.3535 N.2     1  ZINC001570985666   -0.0400
     17 N17        -7.7023   -0.4686   66.1425 N.2     1  ZINC001570985666   -0.2600
     18 C18        -9.0264    1.3757   63.1359 C.2     1  ZINC001570985666   -0.0600
     19 C19        -8.8917    2.4344   57.4737 C.3     1  ZINC001570985666   -0.1500
     20 C20        -9.4611    2.4941   56.0342 C.3     1  ZINC001570985666    0.1000
     21 N21       -10.1836    1.2172   55.8598 N.am    1  ZINC001570985666   -0.6200
     22 C22       -10.4436    0.6165   54.6817 C.2     1  ZINC001570985666    0.5300
     23 O23       -11.0483   -0.4346   54.6575 O.2     1  ZINC001570985666   -0.5300
     24 C24        -9.9832    1.2508   53.3946 C.3     1  ZINC001570985666   -0.1300
     25 C25        -8.5597    0.7877   53.0785 C.3     1  ZINC001570985666   -0.1000
     26 C26        -8.5028   -0.4640   52.1868 C.3     1  ZINC001570985666   -0.1300
     27 C27        -7.3223    0.2030   51.4611 C.3     1  ZINC001570985666   -0.1400
     28 C28        -7.9078    1.5511   51.9136 C.3     1  ZINC001570985666   -0.1400
     29 H29       -12.4661   -0.0794   56.5368 H       1  ZINC001570985666    0.0700
     30 H30       -12.3774    0.2808   58.2777 H       1  ZINC001570985666    0.0700
     31 H31       -12.5307    1.6075   57.1010 H       1  ZINC001570985666    0.0600
     32 H32        -9.1744    0.1099   59.3203 H       1  ZINC001570985666    0.4000
     33 H33        -8.2736   -0.9804   60.9574 H       1  ZINC001570985666    0.1800
     34 H34        -7.6724   -1.4554   63.3827 H       1  ZINC001570985666    0.4300
     35 H35        -8.3983    1.6871   68.1562 H       1  ZINC001570985666    0.4800
     36 H36        -9.4134    2.3234   63.4801 H       1  ZINC001570985666    0.1600
     37 H37        -8.7279    3.4361   57.8710 H       1  ZINC001570985666    0.0900
     38 H38        -7.9736    1.8477   57.5066 H       1  ZINC001570985666    0.0800
     39 H39       -10.1459    3.3359   55.9318 H       1  ZINC001570985666    0.0800
     40 H40        -8.6513    2.5723   55.3089 H       1  ZINC001570985666    0.0800
     41 H41       -10.6498    0.9547   52.5848 H       1  ZINC001570985666    0.0900
     42 H42        -9.9975    2.3357   53.4989 H       1  ZINC001570985666    0.0900
     43 H43        -7.9290    0.7227   53.9652 H       1  ZINC001570985666    0.1000
     44 H44        -8.2281   -1.3713   52.7249 H       1  ZINC001570985666    0.0700
     45 H45        -9.3844   -0.5932   51.5591 H       1  ZINC001570985666    0.0800
     46 H46        -6.3528   -0.0230   51.9050 H       1  ZINC001570985666    0.0800
     47 H47        -7.3376    0.0610   50.3805 H       1  ZINC001570985666    0.0700
     48 H48        -8.6268    1.9727   51.2111 H       1  ZINC001570985666    0.0800
     49 H49        -7.1529    2.2705   52.2310 H       1  ZINC001570985666    0.0700
@<TRIPOS>BOND
     1     1     2    1
     2     1    29    1
     3     1    30    1
     4     1    31    1
     5     2     3    1
     6     2    21    1
     7     2     4    1
     8     4     5    1
     9     4     6    1
    10     4    19    1
    11     6     7   am
    12     6    32    1
    13     7     8    2
    14     7     9    1
    15     9    18    1
    16     9    10    2
    17    10    11    1
    18    10    33    1
    19    11    12    1
    20    11    34    1
    21    12    13    1
    22    12    18    2
    23    13    17    1
    24    13    14    2
    25    14    15    1
    26    15    16    1
    27    15    35    1
    28    16    17    2
    29    18    36    1
    30    19    20    1
    31    19    37    1
    32    19    38    1
    33    20    21    1
    34    20    39    1
    35    20    40    1
    36    21    22   am
    37    22    23    2
    38    22    24    1
    39    24    25    1
    40    24    41    1
    41    24    42    1
    42    25    28    1
    43    25    26    1
    44    25    43    1
    45    26    27    1
    46    26    44    1
    47    26    45    1
    48    27    28    1
    49    27    46    1
    50    27    47    1
    51    28    48    1
    52    28    49    1
@<TRIPOS>SUBSTRUCTURE
     1 ZINC001570985666        1 TEMP              0 ****  ****    0 ROOT


##########                                Name:    ZINC001310073555
##########                DOCK_Rotatable_Bonds:                  12
##########                         Heavy_Atoms:                  27
##########                    Molecular_Weight:             380.484
##########                DOCK_Rotatable_Bonds:                  12
##########                       Formal_Charge:          0.00999888
##########                     HBond_Acceptors:                   7
##########                        HBond_Donors:                   2
##########                         Heavy_Atoms:                  27
##########                          Grid_Score:          -31.859692
##########                     Grid_vdw_energy:          -30.090923
##########                      Grid_es_energy:           -1.768769
##########           Internal_energy_repulsive:           54.232376

@<TRIPOS>MOLECULE
ZINC001310073555
 59 59 1 0 0
SMALL
USER_CHARGES


@<TRIPOS>ATOM
      1 C1         -3.2207    2.7207   50.1776 C.3     1  ZINC001310073555   -0.1600
      2 C2         -4.0738    3.8670   50.7246 C.3     1  ZINC001310073555   -0.1100
      3 C3         -4.9843    3.3400   51.8355 C.3     1  ZINC001310073555   -0.0600
      4 C4         -6.2595    4.1836   51.8929 C.3     1  ZINC001310073555   -0.1100
      5 C5         -5.8891    5.6547   52.0924 C.3     1  ZINC001310073555   -0.1600
      6 C6         -5.3496    1.8826   51.5471 C.3     1  ZINC001310073555    0.1600
      7 N7         -6.3318    1.4214   52.5313 N.am    1  ZINC001310073555   -0.7400
      8 C8         -7.5716    1.0728   52.1337 C.2     1  ZINC001310073555    0.7100
      9 O9         -7.8743    1.1396   50.9579 O.2     1  ZINC001310073555   -0.5700
     10 N10        -8.4757    0.6500   53.0394 N.am    1  ZINC001310073555   -0.6700
     11 C11        -9.7669    0.2869   52.6254 C.ar    1  ZINC001310073555    0.1000
     12 C12        -9.9861   -0.9522   52.0434 C.ar    1  ZINC001310073555   -0.0400
     13 C13       -11.2576   -1.3099   51.6357 C.ar    1  ZINC001310073555   -0.2200
     14 C14       -12.3164   -0.4311   51.8080 C.ar    1  ZINC001310073555    0.1500
     15 O15       -13.5659   -0.7859   51.4059 O.3     1  ZINC001310073555   -0.3200
     16 C16       -13.8523   -0.6814   50.0098 C.3     1  ZINC001310073555    0.0300
     17 C17       -12.1021    0.8094   52.3906 C.ar    1  ZINC001310073555   -0.2300
     18 C18       -10.8303    1.1688   52.8041 C.ar    1  ZINC001310073555    0.1400
     19 O19       -10.6181    2.3844   53.3754 O.3     1  ZINC001310073555   -0.3100
     20 C20       -10.3316    3.4735   52.4958 C.3     1  ZINC001310073555    0.0300
     21 C21        -4.2655    3.4257   53.1572 C.2     1  ZINC001310073555    0.4800
     22 O22        -3.0585    3.4751   53.1863 O.2     1  ZINC001310073555   -0.5000
     23 O23        -4.9658    3.4474   54.3021 O.3     1  ZINC001310073555   -0.3400
     24 C24        -4.2866    3.9547   55.4809 C.3     1  ZINC001310073555    0.1200
     25 C25        -5.2993    4.1408   56.6124 C.3     1  ZINC001310073555   -0.1800
     26 C26        -3.2107    2.9585   55.9179 C.3     1  ZINC001310073555   -0.1400
     27 C27        -3.6340    5.2994   55.1542 C.3     1  ZINC001310073555   -0.1800
     28 H28        -2.5720    3.0962   49.3862 H       1  ZINC001310073555    0.0600
     29 H29        -2.6113    2.3061   50.9807 H       1  ZINC001310073555    0.0500
     30 H30        -3.8709    1.9434   49.7763 H       1  ZINC001310073555    0.0600
     31 H31        -3.4236    4.6445   51.1258 H       1  ZINC001310073555    0.0800
     32 H32        -4.6831    4.2817   49.9215 H       1  ZINC001310073555    0.0800
     33 H33        -6.8119    4.0712   50.9600 H       1  ZINC001310073555    0.0800
     34 H34        -6.8793    3.8490   52.7248 H       1  ZINC001310073555    0.0800
     35 H35        -5.3368    5.7670   53.0253 H       1  ZINC001310073555    0.0600
     36 H36        -5.2693    5.9893   51.2605 H       1  ZINC001310073555    0.0500
     37 H37        -6.7975    6.2557   52.1333 H       1  ZINC001310073555    0.0600
     38 H38        -5.7744    1.8057   50.5463 H       1  ZINC001310073555    0.0800
     39 H39        -4.4541    1.2643   51.6101 H       1  ZINC001310073555    0.0800
     40 H40        -6.0900    1.3668   53.4691 H       1  ZINC001310073555    0.4000
     41 H41        -8.2343    0.5967   53.9773 H       1  ZINC001310073555    0.4100
     42 H42        -9.1630   -1.6382   51.9082 H       1  ZINC001310073555    0.1500
     43 H43       -11.4266   -2.2753   51.1818 H       1  ZINC001310073555    0.1300
     44 H44       -13.7239    0.3524   49.6889 H       1  ZINC001310073555    0.0600
     45 H45       -13.1714   -1.3227   49.4502 H       1  ZINC001310073555    0.0600
     46 H46       -14.8800   -0.9941   49.8254 H       1  ZINC001310073555    0.1000
     47 H47       -12.9272    1.4933   52.5244 H       1  ZINC001310073555    0.1400
     48 H48       -10.1837    4.3824   53.0790 H       1  ZINC001310073555    0.1000
     49 H49        -9.4267    3.2544   51.9290 H       1  ZINC001310073555    0.0600
     50 H50       -11.1657    3.6146   51.8084 H       1  ZINC001310073555    0.0600
     51 H51        -5.7643    3.1828   56.8452 H       1  ZINC001310073555    0.0600
     52 H52        -4.7895    4.5217   57.4974 H       1  ZINC001310073555    0.0700
     53 H53        -6.0658    4.8506   56.3011 H       1  ZINC001310073555    0.0800
     54 H54        -2.4893    2.8259   55.1117 H       1  ZINC001310073555    0.0700
     55 H55        -2.7009    3.3393   56.8028 H       1  ZINC001310073555    0.0800
     56 H56        -3.6757    2.0005   56.1506 H       1  ZINC001310073555    0.0700
     57 H57        -4.4004    6.0092   54.8428 H       1  ZINC001310073555    0.0800
     58 H58        -3.1241    5.6803   56.0391 H       1  ZINC001310073555    0.0700
     59 H59        -2.9124    5.1669   54.3480 H       1  ZINC001310073555    0.0600
@<TRIPOS>BOND
     1     1     2    1
     2     1    28    1
     3     1    29    1
     4     1    30    1
     5     2     3    1
     6     2    31    1
     7     2    32    1
     8     3     4    1
     9     3     6    1
    10     3    21    1
    11     4     5    1
    12     4    33    1
    13     4    34    1
    14     5    35    1
    15     5    36    1
    16     5    37    1
    17     6     7    1
    18     6    38    1
    19     6    39    1
    20     7     8   am
    21     7    40    1
    22     8     9    2
    23     8    10   am
    24    10    11    1
    25    10    41    1
    26    11    18   ar
    27    11    12   ar
    28    12    13   ar
    29    12    42    1
    30    13    14   ar
    31    13    43    1
    32    14    15    1
    33    14    17   ar
    34    15    16    1
    35    16    44    1
    36    16    45    1
    37    16    46    1
    38    17    18   ar
    39    17    47    1
    40    18    19    1
    41    19    20    1
    42    20    48    1
    43    20    49    1
    44    20    50    1
    45    21    22    2
    46    21    23    1
    47    23    24    1
    48    24    25    1
    49    24    26    1
    50    24    27    1
    51    25    51    1
    52    25    52    1
    53    25    53    1
    54    26    54    1
    55    26    55    1
    56    26    56    1
    57    27    57    1
    58    27    58    1
    59    27    59    1
@<TRIPOS>SUBSTRUCTURE
     1 ZINC001310073555        1 TEMP              0 ****  ****    0 ROOT


##########                                Name:    ZINC001039825450
##########                DOCK_Rotatable_Bonds:                   8
##########                         Heavy_Atoms:                  24
##########                    Molecular_Weight:             337.339
##########                DOCK_Rotatable_Bonds:                   8
##########                       Formal_Charge:           0.0100001
##########                     HBond_Acceptors:                  11
##########                        HBond_Donors:                   4
##########                         Heavy_Atoms:                  24
##########                          Grid_Score:          -31.836054
##########                     Grid_vdw_energy:          -29.720476
##########                      Grid_es_energy:           -2.115578
##########           Internal_energy_repulsive:            8.241835

@<TRIPOS>MOLECULE
ZINC001039825450
 43 45 1 0 0
SMALL
USER_CHARGES


@<TRIPOS>ATOM
      1 O1        -10.4651    0.8820   63.7136 O.2     1  ZINC001039825450   -0.5100
      2 C2         -9.3701    0.9137   63.1932 C.2     1  ZINC001039825450    0.5000
      3 C3         -8.1452    1.1777   64.0305 C.3     1  ZINC001039825450    0.1300
      4 N4         -8.3704    0.6888   65.3931 N.pl3   1  ZINC001039825450   -0.1500
      5 N5         -8.8815    1.3869   66.3446 N.2     1  ZINC001039825450   -0.2800
      6 C6         -8.9402    0.6448   67.4272 C.2     1  ZINC001039825450   -0.0200
      7 C7         -8.4140   -0.5982   67.0682 C.2     1  ZINC001039825450   -0.0200
      8 N8         -8.0892   -0.4985   65.7991 N.2     1  ZINC001039825450   -0.2800
      9 N9         -9.2480    0.7072   61.8670 N.am    1  ZINC001039825450   -0.7300
     10 C10       -10.4387    0.4505   61.0530 C.3     1  ZINC001039825450    0.1000
     11 C11       -10.0493   -0.3772   59.8266 C.3     1  ZINC001039825450    0.1100
     12 O12        -8.7593    0.0083   59.3475 O.3     1  ZINC001039825450   -0.5400
     13 C13       -10.0874   -1.8936   60.1530 C.3     1  ZINC001039825450   -0.1600
     14 C14       -10.3529   -2.5061   58.7551 C.3     1  ZINC001039825450    0.1000
     15 N15       -11.2742   -1.5612   58.0979 N.am    1  ZINC001039825450   -0.6100
     16 C16       -12.1267   -1.8622   57.0985 C.2     1  ZINC001039825450    0.5200
     17 O17       -12.8408   -1.0007   56.6304 O.2     1  ZINC001039825450   -0.5100
     18 C18       -12.1929   -3.2691   56.5625 C.3     1  ZINC001039825450    0.1100
     19 H19       -11.1954   -3.7056   56.5121 H       1  ZINC001039825450    0.1200
     20 C20       -12.8625   -3.2882   55.1746 C.3     1  ZINC001039825450    0.1100
     21 N21       -14.0560   -4.1246   55.3707 N.am    1  ZINC001039825450   -0.7400
     22 C22       -14.1005   -4.5363   56.6445 C.2     1  ZINC001039825450    0.7100
     23 O23       -14.9864   -5.2449   57.0817 O.2     1  ZINC001039825450   -0.5800
     24 N24       -13.0774   -4.0977   57.3953 N.am    1  ZINC001039825450   -0.7200
     25 C25       -11.1093   -0.2364   58.7138 C.3     1  ZINC001039825450    0.1200
     26 H26        -7.2896    0.6608   63.5959 H       1  ZINC001039825450    0.1400
     27 H27        -7.9473    2.2492   64.0571 H       1  ZINC001039825450    0.1400
     28 H28        -9.3176    0.9363   68.3962 H       1  ZINC001039825450    0.2000
     29 H29        -8.3013   -1.4649   67.7026 H       1  ZINC001039825450    0.2000
     30 H30        -8.3717    0.7286   61.4515 H       1  ZINC001039825450    0.4000
     31 H31       -11.1715   -0.0986   61.6441 H       1  ZINC001039825450    0.0900
     32 H32       -10.8692    1.3983   60.7298 H       1  ZINC001039825450    0.0900
     33 H33        -8.7109    0.9245   59.0419 H       1  ZINC001039825450    0.3800
     34 H34        -9.1311   -2.2313   60.5523 H       1  ZINC001039825450    0.0900
     35 H35       -10.9001   -2.1246   60.8415 H       1  ZINC001039825450    0.0900
     36 H36        -9.4229   -2.5830   58.1918 H       1  ZINC001039825450    0.0800
     37 H37       -10.8204   -3.4858   58.8529 H       1  ZINC001039825450    0.0800
     38 H38       -13.1470   -2.2801   54.8731 H       1  ZINC001039825450    0.0900
     39 H39       -12.1983   -3.7365   54.4356 H       1  ZINC001039825450    0.1000
     40 H40       -14.7075   -4.3434   54.6862 H       1  ZINC001039825450    0.4400
     41 H41       -12.9456   -4.2948   58.3359 H       1  ZINC001039825450    0.4400
     42 H42       -12.0555    0.0932   59.1429 H       1  ZINC001039825450    0.0900
     43 H43       -10.7692    0.4802   57.9663 H       1  ZINC001039825450    0.0900
@<TRIPOS>BOND
     1     1     2    2
     2     2     3    1
     3     2     9   am
     4     3     4    1
     5     3    26    1
     6     3    27    1
     7     4     8    1
     8     4     5    1
     9     5     6    2
    10     6     7    1
    11     6    28    1
    12     7     8    2
    13     7    29    1
    14     9    10    1
    15     9    30    1
    16    10    11    1
    17    10    31    1
    18    10    32    1
    19    11    25    1
    20    11    12    1
    21    11    13    1
    22    12    33    1
    23    13    14    1
    24    13    34    1
    25    13    35    1
    26    14    15    1
    27    14    36    1
    28    14    37    1
    29    15    16   am
    30    15    25    1
    31    16    17    2
    32    16    18    1
    33    18    19    1
    34    18    24    1
    35    18    20    1
    36    20    21    1
    37    20    38    1
    38    20    39    1
    39    21    22   am
    40    21    40    1
    41    22    23    2
    42    22    24   am
    43    24    41    1
    44    25    42    1
    45    25    43    1
@<TRIPOS>SUBSTRUCTURE
     1 ZINC001039825450        1 TEMP              0 ****  ****    0 ROOT


##########                                Name:    ZINC001004075025
##########                DOCK_Rotatable_Bonds:                   8
##########                         Heavy_Atoms:                  25
##########                    Molecular_Weight:              349.43
##########                DOCK_Rotatable_Bonds:                   8
##########                       Formal_Charge:         -0.00999999
##########                     HBond_Acceptors:                   7
##########                        HBond_Donors:                   1
##########                         Heavy_Atoms:                  25
##########                          Grid_Score:          -31.828936
##########                     Grid_vdw_energy:          -31.206095
##########                      Grid_es_energy:           -0.622840
##########           Internal_energy_repulsive:            9.891632

@<TRIPOS>MOLECULE
ZINC001004075025
 52 54 1 0 0
SMALL
USER_CHARGES


@<TRIPOS>ATOM
      1 C1         -7.9132   -0.6696   66.8698 C.3     1  ZINC001004075025   -0.1500
      2 C2         -7.8268    0.8193   66.5283 C.3     1  ZINC001004075025   -0.1200
      3 C3         -9.0004    1.2042   65.6253 C.3     1  ZINC001004075025    0.0800
      4 H4         -9.9453    1.0403   66.1433 H       1  ZINC001004075025    0.0700
      5 C5         -8.8778    2.6852   65.1862 C.3     1  ZINC001004075025   -0.1500
      6 C6         -9.6947    2.6696   63.8654 C.3     1  ZINC001004075025   -0.1400
      7 C7         -9.3912    1.2618   63.3091 C.3     1  ZINC001004075025    0.0700
      8 H8         -8.6013    1.3223   62.5605 H       1  ZINC001004075025    0.1100
      9 C9        -10.6357    0.6765   62.6928 C.2     1  ZINC001004075025    0.5300
     10 O10       -11.7233    0.9294   63.1659 O.2     1  ZINC001004075025   -0.5200
     11 N11       -10.5399   -0.1283   61.6159 N.am    1  ZINC001004075025   -0.6500
     12 C12       -11.4803   -0.8601   60.7540 C.3     1  ZINC001004075025    0.1100
     13 C13       -10.3519   -1.8594   60.4635 C.3     1  ZINC001004075025   -0.1400
     14 C14       -10.2840   -2.3228   59.0069 C.3     1  ZINC001004075025    0.1300
     15 N15       -11.5301   -3.0077   58.6539 N.am    1  ZINC001004075025   -0.7200
     16 C16       -12.3181   -2.5129   57.6788 C.2     1  ZINC001004075025    0.6000
     17 O17       -11.9940   -1.4988   57.0911 O.2     1  ZINC001004075025   -0.5300
     18 C18       -13.5726   -3.2010   57.3247 C.2     1  ZINC001004075025   -0.2700
     19 C19       -14.7873   -3.1494   57.9638 C.2     1  ZINC001004075025    0.0700
     20 C20       -15.1236   -2.3596   59.2025 C.3     1  ZINC001004075025   -0.0300
     21 C21       -15.9462   -1.1291   58.8150 C.3     1  ZINC001004075025   -0.1500
     22 C22       -15.9347   -3.2343   60.1605 C.3     1  ZINC001004075025   -0.1500
     23 O23       -15.6108   -3.9379   57.2695 O.3     1  ZINC001004075025    0.1000
     24 N24       -15.0818   -4.4538   56.3156 N.2     1  ZINC001004075025   -0.3500
     25 C25       -13.8344   -4.1075   56.1962 C.2     1  ZINC001004075025    0.0200
     26 C26        -9.4497   -0.6558   60.7818 C.3     1  ZINC001004075025    0.1100
     27 O27        -8.9617    0.4451   64.4064 O.3     1  ZINC001004075025   -0.3400
     28 H28        -7.0772   -0.9440   67.5131 H       1  ZINC001004075025    0.0600
     29 H29        -8.8512   -0.8697   67.3878 H       1  ZINC001004075025    0.0500
     30 H30        -7.8729   -1.2559   65.9518 H       1  ZINC001004075025    0.0600
     31 H31        -7.8672    1.4056   67.4464 H       1  ZINC001004075025    0.0800
     32 H32        -6.8889    1.0194   66.0103 H       1  ZINC001004075025    0.0700
     33 H33        -9.3309    3.3514   65.9204 H       1  ZINC001004075025    0.0900
     34 H34        -7.8381    2.9555   65.0020 H       1  ZINC001004075025    0.0900
     35 H35       -10.7596    2.7861   64.0664 H       1  ZINC001004075025    0.0800
     36 H36        -9.3412    3.4413   63.1815 H       1  ZINC001004075025    0.0900
     37 H37       -12.3178   -1.2970   61.2979 H       1  ZINC001004075025    0.0900
     38 H38       -11.7956   -0.2945   59.8771 H       1  ZINC001004075025    0.0900
     39 H39       -10.2849   -2.6783   61.1797 H       1  ZINC001004075025    0.1100
     40 H40       -10.1476   -1.4586   58.3567 H       1  ZINC001004075025    0.0800
     41 H41        -9.4452   -3.0075   58.8821 H       1  ZINC001004075025    0.0800
     42 H42       -11.7879   -3.8173   59.1219 H       1  ZINC001004075025    0.4000
     43 H43       -14.2029   -2.0418   59.6918 H       1  ZINC001004075025    0.1300
     44 H44       -16.8669   -1.4469   58.3257 H       1  ZINC001004075025    0.0600
     45 H45       -16.1894   -0.5579   59.7110 H       1  ZINC001004075025    0.0700
     46 H46       -15.3684   -0.5059   58.1326 H       1  ZINC001004075025    0.0600
     47 H47       -16.8553   -3.5522   59.6712 H       1  ZINC001004075025    0.0600
     48 H48       -15.3486   -4.1110   60.4365 H       1  ZINC001004075025    0.0600
     49 H49       -16.1778   -2.6632   61.0564 H       1  ZINC001004075025    0.0700
     50 H50       -13.1369   -4.4235   55.4344 H       1  ZINC001004075025    0.2000
     51 H51        -9.2266   -0.0384   59.9116 H       1  ZINC001004075025    0.0900
     52 H52        -8.5587   -0.9199   61.3515 H       1  ZINC001004075025    0.0800
@<TRIPOS>BOND
     1     1     2    1
     2     1    28    1
     3     1    29    1
     4     1    30    1
     5     2     3    1
     6     2    31    1
     7     2    32    1
     8     3     4    1
     9     3    27    1
    10     3     5    1
    11     5     6    1
    12     5    33    1
    13     5    34    1
    14     6     7    1
    15     6    35    1
    16     6    36    1
    17     7     8    1
    18     7     9    1
    19     7    27    1
    20     9    10    2
    21     9    11   am
    22    11    26    1
    23    11    12    1
    24    12    13    1
    25    12    37    1
    26    12    38    1
    27    13    14    1
    28    13    26    1
    29    13    39    1
    30    14    15    1
    31    14    40    1
    32    14    41    1
    33    15    16   am
    34    15    42    1
    35    16    17    2
    36    16    18    1
    37    18    25    1
    38    18    19    2
    39    19    20    1
    40    19    23    1
    41    20    21    1
    42    20    22    1
    43    20    43    1
    44    21    44    1
    45    21    45    1
    46    21    46    1
    47    22    47    1
    48    22    48    1
    49    22    49    1
    50    23    24    1
    51    24    25    2
    52    25    50    1
    53    26    51    1
    54    26    52    1
@<TRIPOS>SUBSTRUCTURE
     1 ZINC001004075025        1 TEMP              0 ****  ****    0 ROOT


##########                                Name:    ZINC000004313955
##########                DOCK_Rotatable_Bonds:                   6
##########                         Heavy_Atoms:                  26
##########                    Molecular_Weight:             414.358
##########                DOCK_Rotatable_Bonds:                   6
##########                       Formal_Charge:           0.0299997
##########                     HBond_Acceptors:                   9
##########                        HBond_Donors:                   2
##########                         Heavy_Atoms:                  26
##########                          Grid_Score:          -31.790571
##########                     Grid_vdw_energy:          -31.379452
##########                      Grid_es_energy:           -0.411119
##########           Internal_energy_repulsive:            8.998932

@<TRIPOS>MOLECULE
ZINC000004313955
 47 49 1 0 0
SMALL
USER_CHARGES


@<TRIPOS>ATOM
      1 C1          1.3157    3.2563   50.7457 C.3     1  ZINC000004313955   -0.1500
      2 C2         -0.1277    3.6311   51.0878 C.3     1  ZINC000004313955   -0.1100
      3 H3         -0.5179    4.3076   50.3274 H       1  ZINC000004313955    0.0800
      4 C4         -0.1664    4.3208   52.4534 C.3     1  ZINC000004313955   -0.1100
      5 C5         -1.6053    4.7254   52.7819 C.3     1  ZINC000004313955   -0.1100
      6 H6         -1.6286    5.2374   53.7440 H       1  ZINC000004313955    0.0900
      7 C7         -2.1339    5.6610   51.6927 C.3     1  ZINC000004313955   -0.1500
      8 C8         -2.4817    3.4708   52.8489 C.3     1  ZINC000004313955    0.1200
      9 N9         -2.3367    2.7250   51.5913 N.am    1  ZINC000004313955   -0.6000
     10 C10        -3.4209    2.3790   50.8693 C.2     1  ZINC000004313955    0.5400
     11 O11        -3.2878    1.7647   49.8321 O.2     1  ZINC000004313955   -0.5300
     12 C12        -4.7984    2.7556   51.3506 C.3     1  ZINC000004313955   -0.1400
     13 S13        -6.0346    2.1506   50.1751 S.3     1  ZINC000004313955    0.0800
     14 C14        -7.0048    1.1406   51.2443 C.2     1  ZINC000004313955    0.1100
     15 N15        -6.8235   -0.1385   51.4852 N.2     1  ZINC000004313955   -0.2800
     16 N16        -7.7106   -0.5618   52.3131 N.2     1  ZINC000004313955   -0.2400
     17 C17        -8.5127    0.4207   52.6517 C.2     1  ZINC000004313955    0.2500
     18 C18        -9.6588    0.3385   53.5817 C.ar    1  ZINC000004313955   -0.0100
     19 C19        -9.6066    0.9861   54.8168 C.ar    1  ZINC000004313955   -0.0700
     20 C20       -10.6792    0.9057   55.6807 C.ar    1  ZINC000004313955   -0.1100
     21 C21       -11.8061    0.1840   55.3252 C.ar    1  ZINC000004313955   -0.0100
     22 Cl22      -13.1511    0.0875   56.4186 Cl      1  ZINC000004313955   -0.0500
     23 C23       -11.8651   -0.4608   54.1012 C.ar    1  ZINC000004313955   -0.1100
     24 C24       -10.8007   -0.3832   53.2256 C.ar    1  ZINC000004313955    0.0100
     25 Cl25      -10.8756   -1.1920   51.6914 Cl      1  ZINC000004313955   -0.0100
     26 N26        -8.0821    1.5426   51.9817 N.pl3   1  ZINC000004313955   -0.3000
     27 N27        -8.6237    2.7954   52.0365 N.3     1  ZINC000004313955   -0.5800
     28 C28        -0.9875    2.3641   51.1348 C.3     1  ZINC000004313955    0.1100
     29 H29         1.3426    2.7640   49.7735 H       1  ZINC000004313955    0.0600
     30 H30         1.9273    4.1579   50.7135 H       1  ZINC000004313955    0.0600
     31 H31         1.7055    2.5798   51.5063 H       1  ZINC000004313955    0.0600
     32 H32         0.2014    3.6353   53.2170 H       1  ZINC000004313955    0.0700
     33 H33         0.4644    5.2094   52.4294 H       1  ZINC000004313955    0.0700
     34 H34        -2.1114    5.1482   50.7310 H       1  ZINC000004313955    0.0600
     35 H35        -3.1587    5.9489   51.9271 H       1  ZINC000004313955    0.0600
     36 H36        -1.5082    6.5521   51.6440 H       1  ZINC000004313955    0.0600
     37 H37        -2.1624    2.8462   53.6831 H       1  ZINC000004313955    0.0700
     38 H38        -3.5239    3.7600   52.9842 H       1  ZINC000004313955    0.1000
     39 H39        -4.9767    2.3075   52.3282 H       1  ZINC000004313955    0.1300
     40 H40        -4.8719    3.8402   51.4292 H       1  ZINC000004313955    0.1300
     41 H41        -8.7281    1.5489   55.0959 H       1  ZINC000004313955    0.1600
     42 H42       -10.6396    1.4067   56.6367 H       1  ZINC000004313955    0.1500
     43 H43       -12.7467   -1.0222   53.8296 H       1  ZINC000004313955    0.1500
     44 H44        -9.2736    2.8751   52.8043 H       1  ZINC000004313955    0.3700
     45 H45        -7.9028    3.4986   52.0984 H       1  ZINC000004313955    0.3800
     46 H46        -1.0444    1.9229   50.1397 H       1  ZINC000004313955    0.0900
     47 H47        -0.5459    1.6492   51.8290 H       1  ZINC000004313955    0.0800
@<TRIPOS>BOND
     1     1     2    1
     2     1    29    1
     3     1    30    1
     4     1    31    1
     5     2     3    1
     6     2    28    1
     7     2     4    1
     8     4     5    1
     9     4    32    1
    10     4    33    1
    11     5     6    1
    12     5     7    1
    13     5     8    1
    14     7    34    1
    15     7    35    1
    16     7    36    1
    17     8     9    1
    18     8    37    1
    19     8    38    1
    20     9    10   am
    21     9    28    1
    22    10    11    2
    23    10    12    1
    24    12    13    1
    25    12    39    1
    26    12    40    1
    27    13    14    1
    28    14    26    1
    29    14    15    2
    30    15    16    1
    31    16    17    2
    32    17    18    1
    33    17    26    1
    34    18    24   ar
    35    18    19   ar
    36    19    20   ar
    37    19    41    1
    38    20    21   ar
    39    20    42    1
    40    21    22    1
    41    21    23   ar
    42    23    24   ar
    43    23    43    1
    44    24    25    1
    45    26    27    1
    46    27    44    1
    47    27    45    1
    48    28    46    1
    49    28    47    1
@<TRIPOS>SUBSTRUCTURE
     1 ZINC000004313955        1 TEMP              0 ****  ****    0 ROOT


##########                                Name:    ZINC001127302705
##########                DOCK_Rotatable_Bonds:                   9
##########                         Heavy_Atoms:                  28
##########                    Molecular_Weight:             398.892
##########                DOCK_Rotatable_Bonds:                   9
##########                       Formal_Charge:          -0.0200002
##########                     HBond_Acceptors:                   7
##########                        HBond_Donors:                   1
##########                         Heavy_Atoms:                  28
##########                          Grid_Score:          -31.783085
##########                     Grid_vdw_energy:          -30.600445
##########                      Grid_es_energy:           -1.182641
##########           Internal_energy_repulsive:           25.792889

@<TRIPOS>MOLECULE
ZINC001127302705
 51 53 1 0 0
SMALL
USER_CHARGES


@<TRIPOS>ATOM
      1 C1        -10.7862    1.6566   60.3379 C.3     1  ZINC001127302705   -0.1500
      2 C2         -9.9341    0.4536   60.7476 C.3     1  ZINC001127302705   -0.1400
      3 C3        -10.0055   -0.6171   59.6570 C.3     1  ZINC001127302705    0.1800
      4 C4         -8.8705   -1.6237   59.8555 C.3     1  ZINC001127302705   -0.1600
      5 C5        -11.3504   -1.3417   59.7410 C.3     1  ZINC001127302705    0.0700
      6 O6        -11.9813   -1.3249   58.4589 O.3     1  ZINC001127302705   -0.2800
      7 C7        -12.9336   -2.2637   58.2285 C.ar    1  ZINC001127302705    0.3400
      8 N8        -14.0591   -2.2388   58.9219 N.ar    1  ZINC001127302705   -0.5300
      9 C9        -15.0112   -3.1323   58.7295 C.ar    1  ZINC001127302705    0.1400
     10 C10       -14.8640   -4.1327   57.7898 C.ar    1  ZINC001127302705   -0.2000
     11 C11       -13.6971   -4.1944   57.0403 C.ar    1  ZINC001127302705   -0.0300
     12 C12       -12.7191   -3.2393   57.2614 C.ar    1  ZINC001127302705   -0.1100
     13 Cl13      -11.2400   -3.2679   56.3532 Cl      1  ZINC001127302705   -0.0400
     14 N14        -9.8729    0.0154   58.3422 N.am    1  ZINC001127302705   -0.7100
     15 C15        -8.7674    0.7270   58.0451 C.2     1  ZINC001127302705    0.6200
     16 O16        -7.8797    0.8428   58.8677 O.2     1  ZINC001127302705   -0.5200
     17 C17        -8.6345    1.3662   56.7202 C.2     1  ZINC001127302705   -0.0200
     18 N18        -7.6371    2.1252   56.3120 N.2     1  ZINC001127302705   -0.2500
     19 N19        -7.8444    2.5143   55.1053 N.pl3   1  ZINC001127302705   -0.2800
     20 C20        -6.9406    3.3718   54.3346 C.3     1  ZINC001127302705    0.1600
     21 C21        -7.2514    3.2376   52.8661 C.ar    1  ZINC001127302705   -0.1200
     22 C22        -8.1528    4.0987   52.2688 C.ar    1  ZINC001127302705   -0.1000
     23 C23        -8.4379    3.9755   50.9219 C.ar    1  ZINC001127302705   -0.1200
     24 C24        -7.8213    2.9914   50.1720 C.ar    1  ZINC001127302705   -0.1100
     25 C25        -6.9192    2.1308   50.7691 C.ar    1  ZINC001127302705   -0.1200
     26 C26        -6.6309    2.2568   52.1152 C.ar    1  ZINC001127302705   -0.0800
     27 C27        -9.0152    2.0192   54.6496 C.2     1  ZINC001127302705   -0.0200
     28 C28        -9.5506    1.2751   55.6456 C.2     1  ZINC001127302705   -0.1800
     29 H29       -11.8211    1.3407   60.2060 H       1  ZINC001127302705    0.0500
     30 H30       -10.7353    2.4193   61.1148 H       1  ZINC001127302705    0.0600
     31 H31       -10.4093    2.0666   59.4009 H       1  ZINC001127302705    0.0500
     32 H32        -8.8992    0.7695   60.8793 H       1  ZINC001127302705    0.0900
     33 H33       -10.3110    0.0436   61.6845 H       1  ZINC001127302705    0.0800
     34 H34        -8.9692   -2.0943   60.8337 H       1  ZINC001127302705    0.0700
     35 H35        -8.9214   -2.3865   59.0785 H       1  ZINC001127302705    0.0500
     36 H36        -7.9124   -1.1075   59.7956 H       1  ZINC001127302705    0.0800
     37 H37       -11.1884   -2.3736   60.0526 H       1  ZINC001127302705    0.0800
     38 H38       -11.9893   -0.8389   60.4669 H       1  ZINC001127302705    0.0700
     39 H39       -15.9172   -3.0801   59.3151 H       1  ZINC001127302705    0.1700
     40 H40       -15.6482   -4.8599   57.6396 H       1  ZINC001127302705    0.1500
     41 H41       -13.5569   -4.9670   56.2988 H       1  ZINC001127302705    0.1500
     42 H42       -10.5805   -0.0779   57.6855 H       1  ZINC001127302705    0.4100
     43 H43        -7.0744    4.4091   54.6411 H       1  ZINC001127302705    0.1000
     44 H44        -5.9093    3.0692   54.5167 H       1  ZINC001127302705    0.1100
     45 H45        -8.6345    4.8676   52.8546 H       1  ZINC001127302705    0.1200
     46 H46        -9.1427    4.6480   50.4553 H       1  ZINC001127302705    0.1300
     47 H47        -8.0445    2.8948   49.1198 H       1  ZINC001127302705    0.1200
     48 H48        -6.4378    1.3618   50.1834 H       1  ZINC001127302705    0.1300
     49 H49        -5.9262    1.5844   52.5817 H       1  ZINC001127302705    0.1300
     50 H50        -9.4423    2.1824   53.6712 H       1  ZINC001127302705    0.1800
     51 H51       -10.4841    0.7323   55.6267 H       1  ZINC001127302705    0.1600
@<TRIPOS>BOND
     1     1     2    1
     2     1    29    1
     3     1    30    1
     4     1    31    1
     5     2     3    1
     6     2    32    1
     7     2    33    1
     8     3     4    1
     9     3     5    1
    10     3    14    1
    11     4    34    1
    12     4    35    1
    13     4    36    1
    14     5     6    1
    15     5    37    1
    16     5    38    1
    17     6     7    1
    18     7    12   ar
    19     7     8   ar
    20     8     9   ar
    21     9    10   ar
    22     9    39    1
    23    10    11   ar
    24    10    40    1
    25    11    12   ar
    26    11    41    1
    27    12    13    1
    28    14    15   am
    29    14    42    1
    30    15    16    2
    31    15    17    1
    32    17    28    1
    33    17    18    2
    34    18    19    1
    35    19    20    1
    36    19    27    1
    37    20    21    1
    38    20    43    1
    39    20    44    1
    40    21    26   ar
    41    21    22   ar
    42    22    23   ar
    43    22    45    1
    44    23    24   ar
    45    23    46    1
    46    24    25   ar
    47    24    47    1
    48    25    26   ar
    49    25    48    1
    50    26    49    1
    51    27    28    2
    52    27    50    1
    53    28    51    1
@<TRIPOS>SUBSTRUCTURE
     1 ZINC001127302705        1 TEMP              0 ****  ****    0 ROOT


##########                                Name:    ZINC000188380122
##########                DOCK_Rotatable_Bonds:                   6
##########                         Heavy_Atoms:                  27
##########                    Molecular_Weight:             396.433
##########                DOCK_Rotatable_Bonds:                   6
##########                       Formal_Charge:           0.0299998
##########                     HBond_Acceptors:                   8
##########                        HBond_Donors:                   1
##########                         Heavy_Atoms:                  27
##########                          Grid_Score:          -31.738386
##########                     Grid_vdw_energy:          -31.170380
##########                      Grid_es_energy:           -0.568007
##########           Internal_energy_repulsive:            9.598239

@<TRIPOS>MOLECULE
ZINC000188380122
 46 49 1 0 0
SMALL
USER_CHARGES


@<TRIPOS>ATOM
      1 O1        -11.0731   -3.8257   57.4940 O.2     1  ZINC000188380122   -0.5200
      2 C2        -11.4834   -2.6978   57.3196 C.2     1  ZINC000188380122    0.5200
      3 C3        -12.5020   -2.4247   56.2430 C.3     1  ZINC000188380122   -0.0700
      4 C4        -11.8009   -1.9444   54.9984 C.2     1  ZINC000188380122    0.0900
      5 C5        -11.9177   -2.5797   53.8275 C.2     1  ZINC000188380122   -0.2400
      6 S6        -10.9550   -1.7133   52.6321 S.3     1  ZINC000188380122    0.1000
      7 C7        -10.4791   -0.5495   53.8662 C.2     1  ZINC000188380122    0.1100
      8 C8         -9.5886    0.6115   53.6528 C.ar    1  ZINC000188380122   -0.0200
      9 C9         -9.3867    1.5371   54.6773 C.ar    1  ZINC000188380122   -0.0400
     10 C10        -8.5541    2.6182   54.4720 C.ar    1  ZINC000188380122   -0.1200
     11 C11        -7.9206    2.7856   53.2536 C.ar    1  ZINC000188380122   -0.0600
     12 C12        -8.1168    1.8713   52.2336 C.ar    1  ZINC000188380122   -0.1800
     13 C13        -7.4222    2.0613   50.9098 C.3     1  ZINC000188380122    0.5100
     14 F14        -6.1740    2.6575   51.1194 F       1  ZINC000188380122   -0.1700
     15 F15        -7.2475    0.8183   50.2921 F       1  ZINC000188380122   -0.1700
     16 F16        -8.2004    2.8847   50.0890 F       1  ZINC000188380122   -0.1700
     17 C17        -8.9421    0.7832   52.4280 C.ar    1  ZINC000188380122   -0.0500
     18 N18       -11.0419   -0.8729   54.9951 N.2     1  ZINC000188380122   -0.4300
     19 N19       -11.0328   -1.6896   58.0922 N.am    1  ZINC000188380122   -0.7200
     20 C20       -10.0427   -1.9551   59.1388 C.3     1  ZINC000188380122    0.1300
     21 H21        -9.4962   -2.8846   58.9792 H       1  ZINC000188380122    0.1200
     22 C22       -10.5972   -1.8024   60.5663 C.3     1  ZINC000188380122   -0.1800
     23 C23        -9.2500   -1.1618   60.9203 C.3     1  ZINC000188380122    0.0900
     24 H24        -8.5051   -1.9111   61.1887 H       1  ZINC000188380122    0.1200
     25 O25        -9.3040   -0.1271   61.8700 O.3     1  ZINC000188380122   -0.3700
     26 C26        -9.9321    1.0960   61.5333 C.3     1  ZINC000188380122    0.0700
     27 C27        -9.4512    1.5995   60.1732 C.3     1  ZINC000188380122   -0.1600
     28 C28        -9.8206    0.5616   59.1089 C.3     1  ZINC000188380122   -0.1100
     29 C29        -9.1336   -0.7489   59.4506 C.3     1  ZINC000188380122   -0.1500
     30 H30        -8.1269   -0.8287   59.0402 H       1  ZINC000188380122    0.0900
     31 H31       -13.0502   -3.3403   56.0207 H       1  ZINC000188380122    0.1100
     32 H32       -13.1975   -1.6590   56.5865 H       1  ZINC000188380122    0.1100
     33 H33       -12.5009   -3.4703   53.6459 H       1  ZINC000188380122    0.1800
     34 H34        -9.8813    1.4079   55.6286 H       1  ZINC000188380122    0.1500
     35 H35        -8.3969    3.3353   55.2640 H       1  ZINC000188380122    0.1400
     36 H36        -7.2706    3.6338   53.0978 H       1  ZINC000188380122    0.1500
     37 H37        -9.0942    0.0702   51.6311 H       1  ZINC000188380122    0.1400
     38 H38       -11.3640   -0.7882   57.9552 H       1  ZINC000188380122    0.4000
     39 H39       -11.4410   -1.1160   60.6376 H       1  ZINC000188380122    0.0900
     40 H40       -10.7770   -2.7519   61.0705 H       1  ZINC000188380122    0.0800
     41 H41       -11.0113    0.9471   61.4990 H       1  ZINC000188380122    0.0500
     42 H42        -9.6979    1.8404   62.2943 H       1  ZINC000188380122    0.1000
     43 H43        -9.9352    2.5485   59.9424 H       1  ZINC000188380122    0.0800
     44 H44        -8.3696    1.7331   60.1941 H       1  ZINC000188380122    0.0800
     45 H45       -10.9009    0.4167   59.0994 H       1  ZINC000188380122    0.0700
     46 H46        -9.4875    0.9071   58.1304 H       1  ZINC000188380122    0.0800
@<TRIPOS>BOND
     1     1     2    2
     2     2     3    1
     3     2    19   am
     4     3     4    1
     5     3    31    1
     6     3    32    1
     7     4    18    1
     8     4     5    2
     9     5     6    1
    10     5    33    1
    11     6     7    1
    12     7     8    1
    13     7    18    2
    14     8    17   ar
    15     8     9   ar
    16     9    10   ar
    17     9    34    1
    18    10    11   ar
    19    10    35    1
    20    11    12   ar
    21    11    36    1
    22    12    13    1
    23    12    17   ar
    24    13    14    1
    25    13    15    1
    26    13    16    1
    27    17    37    1
    28    19    20    1
    29    19    38    1
    30    20    21    1
    31    20    29    1
    32    20    22    1
    33    22    23    1
    34    22    39    1
    35    22    40    1
    36    23    24    1
    37    23    29    1
    38    23    25    1
    39    25    26    1
    40    26    27    1
    41    26    41    1
    42    26    42    1
    43    27    28    1
    44    27    43    1
    45    27    44    1
    46    28    29    1
    47    28    45    1
    48    28    46    1
    49    29    30    1
@<TRIPOS>SUBSTRUCTURE
     1 ZINC000188380122        1 TEMP              0 ****  ****    0 ROOT


##########                                Name:    ZINC000537799672
##########                DOCK_Rotatable_Bonds:                   9
##########                         Heavy_Atoms:                  29
##########                    Molecular_Weight:             401.478
##########                DOCK_Rotatable_Bonds:                   9
##########                       Formal_Charge:        -4.47035e-07
##########                     HBond_Acceptors:                   6
##########                        HBond_Donors:                   1
##########                         Heavy_Atoms:                  29
##########                          Grid_Score:          -31.722269
##########                     Grid_vdw_energy:          -30.281643
##########                      Grid_es_energy:           -1.440626
##########           Internal_energy_repulsive:            9.820305

@<TRIPOS>MOLECULE
ZINC000537799672
 57 59 1 0 0
SMALL
USER_CHARGES


@<TRIPOS>ATOM
      1 C1         -8.6827    0.1958   59.0202 C.3     1  ZINC000537799672    0.0300
      2 O2         -8.3620    0.9206   57.8311 O.3     1  ZINC000537799672   -0.3800
      3 C3         -8.6778    2.3127   57.8958 C.3     1  ZINC000537799672    0.1200
      4 H4         -8.9136    2.5844   58.9247 H       1  ZINC000537799672    0.0900
      5 C5         -7.4959    3.1185   57.4218 C.ar    1  ZINC000537799672   -0.1300
      6 C6         -7.2292    4.3517   57.9870 C.ar    1  ZINC000537799672   -0.0600
      7 C7         -6.1456    5.0915   57.5531 C.ar    1  ZINC000537799672   -0.1500
      8 C8         -5.3267    4.5972   56.5520 C.ar    1  ZINC000537799672    0.1000
      9 F9         -4.2669    5.3195   56.1273 F       1  ZINC000537799672   -0.1400
     10 C10        -5.5945    3.3619   55.9869 C.ar    1  ZINC000537799672   -0.1500
     11 C11        -6.6758    2.6216   56.4258 C.ar    1  ZINC000537799672   -0.0800
     12 C12        -9.8850    2.6040   57.0021 C.3     1  ZINC000537799672    0.1600
     13 H13        -9.6871    3.4925   56.4023 H       1  ZINC000537799672    0.1000
     14 C14       -11.1195    2.8418   57.8741 C.3     1  ZINC000537799672   -0.1600
     15 N15       -10.1249    1.4611   56.1175 N.am    1  ZINC000537799672   -0.7100
     16 C16       -10.2429    1.6508   54.7884 C.2     1  ZINC000537799672    0.5600
     17 O17       -10.1489    2.7699   54.3235 O.2     1  ZINC000537799672   -0.5400
     18 C18       -10.4867    0.4976   53.8958 C.ar    1  ZINC000537799672   -0.1400
     19 C19       -11.7345   -0.1272   53.8832 C.ar    1  ZINC000537799672   -0.0800
     20 C20       -11.9556   -1.2026   53.0475 C.ar    1  ZINC000537799672   -0.1300
     21 C21       -10.9436   -1.6619   52.2237 C.ar    1  ZINC000537799672   -0.0900
     22 C22        -9.7039   -1.0471   52.2316 C.ar    1  ZINC000537799672   -0.1100
     23 C23        -9.4716    0.0328   53.0579 C.ar    1  ZINC000537799672   -0.0300
     24 C24        -8.1211    0.7015   53.0649 C.3     1  ZINC000537799672    0.1100
     25 O25        -8.0945    1.7317   52.0749 O.3     1  ZINC000537799672   -0.3800
     26 C26        -6.7999    2.2970   51.8590 C.3     1  ZINC000537799672    0.0900
     27 C27        -6.2077    1.7405   50.5606 C.3     1  ZINC000537799672   -0.1800
     28 C28        -4.8566    2.4101   50.2969 C.3     1  ZINC000537799672    0.0600
     29 O29        -5.0334    3.8266   50.2298 O.3     1  ZINC000537799672   -0.3800
     30 C30        -5.5400    4.4090   51.4325 C.3     1  ZINC000537799672    0.0600
     31 C31        -6.9187    3.8196   51.7418 C.3     1  ZINC000537799672   -0.1500
     32 H32        -9.7368    0.3373   59.2586 H       1  ZINC000537799672    0.0500
     33 H33        -8.4845   -0.8645   58.8640 H       1  ZINC000537799672    0.0900
     34 H34        -8.0714    0.5621   59.8449 H       1  ZINC000537799672    0.0400
     35 H35        -7.8681    4.7370   58.7678 H       1  ZINC000537799672    0.1300
     36 H36        -5.9379    6.0551   57.9944 H       1  ZINC000537799672    0.1400
     37 H37        -4.9566    2.9755   55.2057 H       1  ZINC000537799672    0.1400
     38 H38        -6.8848    1.6579   55.9854 H       1  ZINC000537799672    0.1300
     39 H39       -10.9077    3.6303   58.5963 H       1  ZINC000537799672    0.0700
     40 H40       -11.9570    3.1416   57.2442 H       1  ZINC000537799672    0.0600
     41 H41       -11.3731    1.9232   58.4030 H       1  ZINC000537799672    0.0700
     42 H42       -10.1987    0.5679   56.4884 H       1  ZINC000537799672    0.4000
     43 H43       -12.5252    0.2299   54.5264 H       1  ZINC000537799672    0.1300
     44 H44       -12.9209   -1.6871   53.0367 H       1  ZINC000537799672    0.1300
     45 H45       -11.1218   -2.5043   51.5717 H       1  ZINC000537799672    0.1300
     46 H46        -8.9180   -1.4107   51.5864 H       1  ZINC000537799672    0.1400
     47 H47        -7.9361    1.1366   54.0471 H       1  ZINC000537799672    0.0800
     48 H48        -7.3495   -0.0358   52.8430 H       1  ZINC000537799672    0.0800
     49 H49        -6.1481    2.0455   52.6957 H       1  ZINC000537799672    0.0600
     50 H50        -6.0682    0.6637   50.6559 H       1  ZINC000537799672    0.0800
     51 H51        -6.8853    1.9490   49.7326 H       1  ZINC000537799672    0.0800
     52 H52        -4.1669    2.1678   51.1054 H       1  ZINC000537799672    0.0500
     53 H53        -4.4503    2.0493   49.3519 H       1  ZINC000537799672    0.1000
     54 H54        -4.8593    4.1927   52.2559 H       1  ZINC000537799672    0.0500
     55 H55        -5.6262    5.4881   51.3056 H       1  ZINC000537799672    0.1000
     56 H56        -7.6106    4.0700   50.9376 H       1  ZINC000537799672    0.0800
     57 H57        -7.2876    4.2297   52.6819 H       1  ZINC000537799672    0.0800
@<TRIPOS>BOND
     1     1     2    1
     2     1    32    1
     3     1    33    1
     4     1    34    1
     5     2     3    1
     6     3     4    1
     7     3     5    1
     8     3    12    1
     9     5    11   ar
    10     5     6   ar
    11     6     7   ar
    12     6    35    1
    13     7     8   ar
    14     7    36    1
    15     8     9    1
    16     8    10   ar
    17    10    11   ar
    18    10    37    1
    19    11    38    1
    20    12    13    1
    21    12    14    1
    22    12    15    1
    23    14    39    1
    24    14    40    1
    25    14    41    1
    26    15    16   am
    27    15    42    1
    28    16    17    2
    29    16    18    1
    30    18    23   ar
    31    18    19   ar
    32    19    20   ar
    33    19    43    1
    34    20    21   ar
    35    20    44    1
    36    21    22   ar
    37    21    45    1
    38    22    23   ar
    39    22    46    1
    40    23    24    1
    41    24    25    1
    42    24    47    1
    43    24    48    1
    44    25    26    1
    45    26    31    1
    46    26    27    1
    47    26    49    1
    48    27    28    1
    49    27    50    1
    50    27    51    1
    51    28    29    1
    52    28    52    1
    53    28    53    1
    54    29    30    1
    55    30    31    1
    56    30    54    1
    57    30    55    1
    58    31    56    1
    59    31    57    1
@<TRIPOS>SUBSTRUCTURE
     1 ZINC000537799672        1 TEMP              0 ****  ****    0 ROOT


##########                                Name:    ZINC000892249927
##########                DOCK_Rotatable_Bonds:                   8
##########                         Heavy_Atoms:                  27
##########                    Molecular_Weight:             364.487
##########                DOCK_Rotatable_Bonds:                   8
##########                       Formal_Charge:          -0.0300015
##########                     HBond_Acceptors:                   4
##########                        HBond_Donors:                   1
##########                         Heavy_Atoms:                  27
##########                          Grid_Score:          -31.710480
##########                     Grid_vdw_energy:          -30.238449
##########                      Grid_es_energy:           -1.472031
##########           Internal_energy_repulsive:           10.569268

@<TRIPOS>MOLECULE
ZINC000892249927
 55 58 1 0 0
SMALL
USER_CHARGES


@<TRIPOS>ATOM
      1 O1         -5.1800    5.0489   55.1875 O.2     1  ZINC000892249927   -0.5300
      2 C2         -4.7808    3.9049   55.1330 C.2     1  ZINC000892249927    0.5100
      3 C3         -4.7740    3.0494   56.3737 C.3     1  ZINC000892249927   -0.1400
      4 C4         -3.3823    2.4441   56.5681 C.3     1  ZINC000892249927   -0.1000
      5 C5         -2.4121    3.5337   57.0288 C.3     1  ZINC000892249927   -0.0800
      6 C6         -1.1567    2.8947   57.5643 C.ar    1  ZINC000892249927   -0.0900
      7 C7         -0.0213    2.8363   56.7780 C.ar    1  ZINC000892249927   -0.1100
      8 C8          1.1303    2.2501   57.2692 C.ar    1  ZINC000892249927   -0.1100
      9 C9          1.1466    1.7228   58.5469 C.ar    1  ZINC000892249927   -0.0500
     10 C10         2.4019    1.0834   59.0822 C.3     1  ZINC000892249927   -0.1200
     11 C11         2.2436   -0.1724   59.9418 C.3     1  ZINC000892249927   -0.1800
     12 C12         2.7939   -0.2837   58.5184 C.3     1  ZINC000892249927   -0.1700
     13 C13         0.0116    1.7826   59.3337 C.ar    1  ZINC000892249927   -0.1200
     14 C14        -1.1388    2.3721   58.8439 C.ar    1  ZINC000892249927   -0.1100
     15 N15        -4.3485    3.3969   53.9619 N.am    1  ZINC000892249927   -0.7300
     16 C16        -4.3552    4.2286   52.7559 C.3     1  ZINC000892249927    0.1400
     17 H17        -4.8833    5.1604   52.9583 H       1  ZINC000892249927    0.1000
     18 C18        -5.0569    3.4783   51.6198 C.3     1  ZINC000892249927   -0.1700
     19 C19        -4.2652    2.2098   51.2911 C.3     1  ZINC000892249927    0.0600
     20 O20        -2.9260    2.5634   50.9395 O.3     1  ZINC000892249927   -0.3700
     21 C21        -2.2051    3.2258   51.9805 C.3     1  ZINC000892249927    0.1400
     22 H22        -2.1644    2.5834   52.8601 H       1  ZINC000892249927    0.0700
     23 C23        -0.8046    3.5241   51.5107 C.ar    1  ZINC000892249927   -0.1400
     24 C24        -0.5931    4.2036   50.3211 C.ar    1  ZINC000892249927   -0.0700
     25 C25         0.7126    4.4566   49.9284 C.ar    1  ZINC000892249927   -0.1700
     26 C26         1.7522    4.0259   50.7304 C.ar    1  ZINC000892249927    0.1000
     27 N27         1.5136    3.3819   51.8564 N.ar    1  ZINC000892249927   -0.4900
     28 C28         0.2853    3.1287   52.2634 C.ar    1  ZINC000892249927    0.1300
     29 C29        -2.9140    4.5369   52.3382 C.3     1  ZINC000892249927   -0.1500
     30 H30        -5.0279    3.6620   57.2389 H       1  ZINC000892249927    0.0900
     31 H31        -5.5066    2.2494   56.2674 H       1  ZINC000892249927    0.0900
     32 H32        -3.4302    1.6578   57.3216 H       1  ZINC000892249927    0.0700
     33 H33        -3.0344    2.0227   55.6250 H       1  ZINC000892249927    0.0700
     34 H34        -2.1610    4.1769   56.1855 H       1  ZINC000892249927    0.0700
     35 H35        -2.8798    4.1287   57.8132 H       1  ZINC000892249927    0.0700
     36 H36        -0.0340    3.2482   55.7797 H       1  ZINC000892249927    0.1200
     37 H37         2.0172    2.2038   56.6545 H       1  ZINC000892249927    0.1200
     38 H38         3.2071    1.7716   59.3394 H       1  ZINC000892249927    0.1100
     39 H39         2.9449   -0.3106   60.7647 H       1  ZINC000892249927    0.1000
     40 H40         1.2317   -0.5361   60.1200 H       1  ZINC000892249927    0.1000
     41 H41         2.1440   -0.7207   57.7604 H       1  ZINC000892249927    0.1000
     42 H42         3.8572   -0.4953   58.4051 H       1  ZINC000892249927    0.1000
     43 H43         0.0245    1.3710   60.3322 H       1  ZINC000892249927    0.1200
     44 H44        -2.0255    2.4187   59.4587 H       1  ZINC000892249927    0.1200
     45 H45        -4.0330    2.4808   53.9176 H       1  ZINC000892249927    0.4000
     46 H46        -6.0659    3.2074   51.9308 H       1  ZINC000892249927    0.0800
     47 H47        -5.1056    4.1162   50.7373 H       1  ZINC000892249927    0.0800
     48 H48        -4.2514    1.5541   52.1616 H       1  ZINC000892249927    0.0500
     49 H49        -4.7364    1.6938   50.4545 H       1  ZINC000892249927    0.1000
     50 H50        -1.4256    4.5280   49.7142 H       1  ZINC000892249927    0.1300
     51 H51         0.9143    4.9832   49.0074 H       1  ZINC000892249927    0.1400
     52 H52         2.7720    4.2186   50.4316 H       1  ZINC000892249927    0.1600
     53 H53         0.1291    2.5986   53.1914 H       1  ZINC000892249927    0.1600
     54 H54        -2.9194    5.1967   51.4705 H       1  ZINC000892249927    0.0900
     55 H55        -2.3899    5.0214   53.1620 H       1  ZINC000892249927    0.0800
@<TRIPOS>BOND
     1     1     2    2
     2     2     3    1
     3     2    15   am
     4     3     4    1
     5     3    30    1
     6     3    31    1
     7     4     5    1
     8     4    32    1
     9     4    33    1
    10     5     6    1
    11     5    34    1
    12     5    35    1
    13     6    14   ar
    14     6     7   ar
    15     7     8   ar
    16     7    36    1
    17     8     9   ar
    18     8    37    1
    19     9    10    1
    20     9    13   ar
    21    10    12    1
    22    10    11    1
    23    10    38    1
    24    11    12    1
    25    11    39    1
    26    11    40    1
    27    12    41    1
    28    12    42    1
    29    13    14   ar
    30    13    43    1
    31    14    44    1
    32    15    16    1
    33    15    45    1
    34    16    17    1
    35    16    29    1
    36    16    18    1
    37    18    19    1
    38    18    46    1
    39    18    47    1
    40    19    20    1
    41    19    48    1
    42    19    49    1
    43    20    21    1
    44    21    22    1
    45    21    23    1
    46    21    29    1
    47    23    28   ar
    48    23    24   ar
    49    24    25   ar
    50    24    50    1
    51    25    26   ar
    52    25    51    1
    53    26    27   ar
    54    26    52    1
    55    27    28   ar
    56    28    53    1
    57    29    54    1
    58    29    55    1
@<TRIPOS>SUBSTRUCTURE
     1 ZINC000892249927        1 TEMP              0 ****  ****    0 ROOT


##########                                Name:    ZINC001328997126
##########                DOCK_Rotatable_Bonds:                   7
##########                         Heavy_Atoms:                  26
##########                    Molecular_Weight:             388.488
##########                DOCK_Rotatable_Bonds:                   7
##########                       Formal_Charge:           0.0299993
##########                     HBond_Acceptors:                  10
##########                        HBond_Donors:                   1
##########                         Heavy_Atoms:                  26
##########                          Grid_Score:          -31.705257
##########                     Grid_vdw_energy:          -30.088909
##########                      Grid_es_energy:           -1.616348
##########           Internal_energy_repulsive:            6.494961

@<TRIPOS>MOLECULE
ZINC001328997126
 54 56 1 0 0
SMALL
USER_CHARGES


@<TRIPOS>ATOM
      1 C1        -11.6748   -0.1108   53.7935 C.3     1  ZINC001328997126   -0.1700
      2 C2        -11.2947    0.5323   52.4581 C.3     1  ZINC001328997126    0.1400
      3 N3         -9.8409    0.7010   52.3938 N.am    1  ZINC001328997126   -0.6300
      4 C4         -9.1220    1.9788   52.5126 C.3     1  ZINC001328997126    0.0700
      5 C5         -7.6398    1.5800   52.3756 C.3     1  ZINC001328997126    0.0700
      6 H6         -7.0895    1.8379   53.2805 H       1  ZINC001328997126    0.1200
      7 C7         -7.0124    2.2585   51.1562 C.3     1  ZINC001328997126    0.0500
      8 N8         -5.7910    2.9655   51.5637 N.3     1  ZINC001328997126   -0.5300
      9 C9         -5.5219    4.1061   50.6770 C.3     1  ZINC001328997126    0.0500
     10 C10        -4.2898    4.8613   51.1811 C.3     1  ZINC001328997126    0.0600
     11 N11        -3.1403    3.9464   51.2214 N.3     1  ZINC001328997126   -0.5200
     12 C12        -1.9189    4.6535   51.6291 C.3     1  ZINC001328997126    0.0400
     13 C13        -0.7378    4.0859   50.8849 C.2     1  ZINC001328997126    0.5200
     14 O14        -0.5852    4.3364   49.7080 O.2     1  ZINC001328997126   -0.5100
     15 N15         0.1489    3.2999   51.5270 N.am    1  ZINC001328997126   -0.7300
     16 C16         1.2962    2.7467   50.8030 C.3     1  ZINC001328997126    0.1600
     17 H17         1.0368    2.6129   49.7528 H       1  ZINC001328997126    0.1100
     18 C18         2.4941    3.7051   50.9219 C.3     1  ZINC001328997126   -0.1400
     19 C19         3.7395    2.9214   50.4333 C.3     1  ZINC001328997126   -0.5800
     20 S20         3.5017    1.2750   51.2029 S.o2    1  ZINC001328997126    2.4000
     21 O21         3.8033    0.2628   50.2522 O.2     1  ZINC001328997126   -0.9300
     22 O22         4.1273    1.2567   52.4786 O.2     1  ZINC001328997126   -0.9300
     23 C23         1.6904    1.3885   51.4167 C.3     1  ZINC001328997126   -0.6100
     24 C24        -3.4094    2.8059   52.1082 C.3     1  ZINC001328997126    0.0500
     25 C25        -4.6415    2.0508   51.6041 C.3     1  ZINC001328997126    0.0600
     26 O26        -7.6786    0.1347   52.1958 O.3     1  ZINC001328997126   -0.3100
     27 C27        -8.9488   -0.2842   52.2229 C.2     1  ZINC001328997126    0.6400
     28 O28        -9.2652   -1.4504   52.0958 O.2     1  ZINC001328997126   -0.5200
     29 H29       -11.1920   -1.0843   53.8784 H       1  ZINC001328997126    0.0600
     30 H30       -11.3469    0.5302   54.6117 H       1  ZINC001328997126    0.0600
     31 H31       -12.7565   -0.2363   53.8413 H       1  ZINC001328997126    0.0700
     32 H32       -11.6226   -0.1087   51.6398 H       1  ZINC001328997126    0.0900
     33 H33       -11.7776    1.5057   52.3731 H       1  ZINC001328997126    0.0900
     34 H34        -9.4117    2.6572   51.7101 H       1  ZINC001328997126    0.0900
     35 H35        -9.3077    2.4336   53.4856 H       1  ZINC001328997126    0.0900
     36 H36        -6.7639    1.5049   50.4089 H       1  ZINC001328997126    0.0900
     37 H37        -7.7203    2.9708   50.7324 H       1  ZINC001328997126    0.0600
     38 H38        -5.3381    3.7447   49.6652 H       1  ZINC001328997126    0.0500
     39 H39        -6.3824    4.7751   50.6738 H       1  ZINC001328997126    0.0900
     40 H40        -4.0712    5.6906   50.5085 H       1  ZINC001328997126    0.0800
     41 H41        -4.4836    5.2460   52.1824 H       1  ZINC001328997126    0.0500
     42 H42        -2.0186    5.7140   51.3977 H       1  ZINC001328997126    0.1100
     43 H43        -1.7672    4.5281   52.7012 H       1  ZINC001328997126    0.0700
     44 H44         0.0275    3.1004   52.4685 H       1  ZINC001328997126    0.4100
     45 H45         2.3346    4.5817   50.2940 H       1  ZINC001328997126    0.1100
     46 H46         2.6277    4.0086   51.9604 H       1  ZINC001328997126    0.0900
     47 H47         3.7453    2.8431   49.3462 H       1  ZINC001328997126    0.1400
     48 H48         4.6562    3.3881   50.7936 H       1  ZINC001328997126    0.1400
     49 H49         1.4317    1.3604   52.4753 H       1  ZINC001328997126    0.1400
     50 H50         1.1948    0.5773   50.8835 H       1  ZINC001328997126    0.1500
     51 H51        -2.5490    2.1368   52.1114 H       1  ZINC001328997126    0.1000
     52 H52        -3.5932    3.1674   53.1200 H       1  ZINC001328997126    0.0400
     53 H53        -4.8602    1.2214   52.2767 H       1  ZINC001328997126    0.0800
     54 H54        -4.4477    1.6660   50.6027 H       1  ZINC001328997126    0.0500
@<TRIPOS>BOND
     1     1     2    1
     2     1    29    1
     3     1    30    1
     4     1    31    1
     5     2     3    1
     6     2    32    1
     7     2    33    1
     8     3    27   am
     9     3     4    1
    10     4     5    1
    11     4    34    1
    12     4    35    1
    13     5     6    1
    14     5     7    1
    15     5    26    1
    16     7     8    1
    17     7    36    1
    18     7    37    1
    19     8    25    1
    20     8     9    1
    21     9    10    1
    22     9    38    1
    23     9    39    1
    24    10    11    1
    25    10    40    1
    26    10    41    1
    27    11    12    1
    28    11    24    1
    29    12    13    1
    30    12    42    1
    31    12    43    1
    32    13    14    2
    33    13    15   am
    34    15    16    1
    35    15    44    1
    36    16    17    1
    37    16    23    1
    38    16    18    1
    39    18    19    1
    40    18    45    1
    41    18    46    1
    42    19    20    1
    43    19    47    1
    44    19    48    1
    45    20    21    2
    46    20    22    2
    47    20    23    1
    48    23    49    1
    49    23    50    1
    50    24    25    1
    51    24    51    1
    52    24    52    1
    53    25    53    1
    54    25    54    1
    55    26    27    1
    56    27    28    2
@<TRIPOS>SUBSTRUCTURE
     1 ZINC001328997126        1 TEMP              0 ****  ****    0 ROOT


##########                                Name:    ZINC000369046711
##########                DOCK_Rotatable_Bonds:                   8
##########                         Heavy_Atoms:                  26
##########                    Molecular_Weight:             367.467
##########                DOCK_Rotatable_Bonds:                   8
##########                       Formal_Charge:        -7.63685e-07
##########                     HBond_Acceptors:                   8
##########                        HBond_Donors:                   1
##########                         Heavy_Atoms:                  26
##########                          Grid_Score:          -31.695139
##########                     Grid_vdw_energy:          -32.289944
##########                      Grid_es_energy:            0.594805
##########           Internal_energy_repulsive:           15.753284

@<TRIPOS>MOLECULE
ZINC000369046711
 56 58 1 0 0
SMALL
USER_CHARGES


@<TRIPOS>ATOM
      1 C1        -10.2619    1.0709   64.7687 C.3     1  ZINC000369046711   -0.1800
      2 C2         -8.7954    1.4191   65.0313 C.3     1  ZINC000369046711    0.1400
      3 C3         -8.6774    2.9058   65.3730 C.3     1  ZINC000369046711   -0.1800
      4 C4         -8.2746    0.5838   66.2024 C.3     1  ZINC000369046711   -0.1400
      5 O5         -8.0096    1.1316   63.8445 O.3     1  ZINC000369046711   -0.3700
      6 C6         -8.3939    0.0798   63.0970 C.2     1  ZINC000369046711    0.6500
      7 O7         -8.2672   -1.0497   63.5269 O.2     1  ZINC000369046711   -0.5700
      8 N8         -8.9190    0.2797   61.8720 N.am    1  ZINC000369046711   -0.7100
      9 C9         -9.3388   -0.8648   61.0594 C.3     1  ZINC000369046711    0.1800
     10 H10        -8.9849   -1.7826   61.5289 H       1  ZINC000369046711    0.0900
     11 C11        -8.7158   -0.7439   59.6691 C.3     1  ZINC000369046711   -0.1300
     12 C12        -9.2380    0.5449   59.0233 C.3     1  ZINC000369046711   -0.1200
     13 C13       -10.7460    0.4113   58.8320 C.3     1  ZINC000369046711   -0.1200
     14 C14       -11.4588    0.2546   60.1768 C.3     1  ZINC000369046711   -0.1000
     15 H15       -11.4963    1.1919   60.7318 H       1  ZINC000369046711    0.0900
     16 C16       -12.8743   -0.3021   59.8617 C.3     1  ZINC000369046711    0.0400
     17 N17       -12.7802   -1.7738   59.9205 N.3     1  ZINC000369046711   -0.5200
     18 C18       -13.1730   -2.3781   58.6405 C.3     1  ZINC000369046711    0.1200
     19 C19       -14.6523   -2.6656   58.6537 C.2     1  ZINC000369046711    0.2900
     20 N20       -15.4583   -2.4988   59.6706 N.2     1  ZINC000369046711   -0.5400
     21 C21       -16.6965   -2.8526   59.3286 C.2     1  ZINC000369046711    0.2000
     22 N22       -16.6956   -3.2512   58.0838 N.2     1  ZINC000369046711   -0.3200
     23 N23       -15.3750   -3.1328   57.6209 N.pl3   1  ZINC000369046711   -0.3700
     24 C24       -14.8811   -3.4621   56.2815 C.3     1  ZINC000369046711    0.1000
     25 C25       -14.1011   -4.7773   56.3346 C.3     1  ZINC000369046711    0.0500
     26 F26       -14.8298   -5.7225   57.0647 F       1  ZINC000369046711   -0.2000
     27 C27       -11.3901   -2.1439   60.2783 C.3     1  ZINC000369046711    0.0500
     28 C28       -10.8445   -0.8950   60.9938 C.3     1  ZINC000369046711   -0.1000
     29 H29       -11.2395   -0.8625   62.0092 H       1  ZINC000369046711    0.0900
     30 H30       -10.6328    1.6661   63.9343 H       1  ZINC000369046711    0.0900
     31 H31       -10.3458    0.0119   64.5253 H       1  ZINC000369046711    0.0600
     32 H32       -10.8516    1.2868   65.6596 H       1  ZINC000369046711    0.0700
     33 H33        -9.2672    3.1217   66.2639 H       1  ZINC000369046711    0.0700
     34 H34        -7.6326    3.1539   65.5601 H       1  ZINC000369046711    0.0600
     35 H35        -9.0484    3.5010   64.5386 H       1  ZINC000369046711    0.0900
     36 H36        -8.3586   -0.4755   65.9590 H       1  ZINC000369046711    0.0700
     37 H37        -7.2298    0.8318   66.3895 H       1  ZINC000369046711    0.0700
     38 H38        -8.8644    0.7997   67.0933 H       1  ZINC000369046711    0.0800
     39 H39        -9.0190    1.1812   61.5284 H       1  ZINC000369046711    0.4000
     40 H40        -7.6301   -0.6989   59.7549 H       1  ZINC000369046711    0.0700
     41 H41        -9.0021   -1.6024   59.0615 H       1  ZINC000369046711    0.0800
     42 H42        -9.0243    1.3936   59.6730 H       1  ZINC000369046711    0.0600
     43 H43        -8.7570    0.6919   58.0563 H       1  ZINC000369046711    0.0700
     44 H44       -11.1231    1.3017   58.3287 H       1  ZINC000369046711    0.0700
     45 H45       -10.9522   -0.4624   58.2138 H       1  ZINC000369046711    0.0600
     46 H46       -13.5884    0.0552   60.6036 H       1  ZINC000369046711    0.0800
     47 H47       -13.1843    0.0116   58.8648 H       1  ZINC000369046711    0.0800
     48 H48       -12.9442   -1.6886   57.8279 H       1  ZINC000369046711    0.0800
     49 H49       -12.6235   -3.3078   58.4938 H       1  ZINC000369046711    0.1000
     50 H50       -17.5608   -2.8165   59.9753 H       1  ZINC000369046711    0.2200
     51 H51       -15.7245   -3.5671   55.5990 H       1  ZINC000369046711    0.1200
     52 H52       -14.2261   -2.6652   55.9297 H       1  ZINC000369046711    0.1100
     53 H53       -13.9407   -5.1457   55.3214 H       1  ZINC000369046711    0.0900
     54 H54       -13.1382   -4.6094   56.8169 H       1  ZINC000369046711    0.0800
     55 H55       -11.3841   -3.0031   60.9490 H       1  ZINC000369046711    0.0900
     56 H56       -10.8078   -2.3542   59.3812 H       1  ZINC000369046711    0.0600
@<TRIPOS>BOND
     1     1     2    1
     2     1    30    1
     3     1    31    1
     4     1    32    1
     5     2     3    1
     6     2     4    1
     7     2     5    1
     8     3    33    1
     9     3    34    1
    10     3    35    1
    11     4    36    1
    12     4    37    1
    13     4    38    1
    14     5     6    1
    15     6     7    2
    16     6     8   am
    17     8     9    1
    18     8    39    1
    19     9    10    1
    20     9    28    1
    21     9    11    1
    22    11    12    1
    23    11    40    1
    24    11    41    1
    25    12    13    1
    26    12    42    1
    27    12    43    1
    28    13    14    1
    29    13    44    1
    30    13    45    1
    31    14    15    1
    32    14    28    1
    33    14    16    1
    34    16    17    1
    35    16    46    1
    36    16    47    1
    37    17    18    1
    38    17    27    1
    39    18    19    1
    40    18    48    1
    41    18    49    1
    42    19    23    1
    43    19    20    2
    44    20    21    1
    45    21    22    2
    46    21    50    1
    47    22    23    1
    48    23    24    1
    49    24    25    1
    50    24    51    1
    51    24    52    1
    52    25    26    1
    53    25    53    1
    54    25    54    1
    55    27    28    1
    56    27    55    1
    57    27    56    1
    58    28    29    1
@<TRIPOS>SUBSTRUCTURE
     1 ZINC000369046711        1 TEMP              0 ****  ****    0 ROOT


##########                                Name:    ZINC000284209281
##########                DOCK_Rotatable_Bonds:                   8
##########                         Heavy_Atoms:                  26
##########                    Molecular_Weight:             353.424
##########                DOCK_Rotatable_Bonds:                   8
##########                       Formal_Charge:          0.00999954
##########                     HBond_Acceptors:                   7
##########                        HBond_Donors:                   1
##########                         Heavy_Atoms:                  26
##########                          Grid_Score:          -31.673574
##########                     Grid_vdw_energy:          -31.006203
##########                      Grid_es_energy:           -0.667371
##########           Internal_energy_repulsive:           10.816143

@<TRIPOS>MOLECULE
ZINC000284209281
 49 51 1 0 0
SMALL
USER_CHARGES


@<TRIPOS>ATOM
      1 O1        -11.7298    1.0222   53.7073 O.2     1  <0>        -0.5100
      2 C2        -10.8807    0.2352   54.0709 C.2     1  <0>         0.5100
      3 N3        -10.8045   -0.1222   55.3682 N.am    1  <0>        -0.7000
      4 C4        -11.7427    0.4441   56.3403 C.3     1  <0>         0.1200
      5 C5        -11.4947   -0.1831   57.7137 C.3     1  <0>        -0.1000
      6 C6        -11.6644   -1.6776   57.6214 C.ar    1  <0>        -0.0400
      7 C7        -10.6974   -2.5342   58.1251 C.ar    1  <0>        -0.1700
      8 C8        -10.8874   -3.8992   58.0224 C.ar    1  <0>         0.1000
      9 N9        -11.9717   -4.3884   57.4535 N.ar    1  <0>        -0.4900
     10 C10       -12.9119   -3.6040   56.9637 C.ar    1  <0>         0.1000
     11 C11       -12.7938   -2.2289   57.0358 C.ar    1  <0>        -0.1700
     12 C12        -9.9236   -0.3426   53.0792 C.2     1  <0>         0.5100
     13 O13       -10.2313   -1.3286   52.4422 O.2     1  <0>        -0.5200
     14 N14        -8.7185    0.2313   52.8923 N.am    1  <0>        -0.5800
     15 C15        -7.7640   -0.3176   51.9173 C.3     1  <0>         0.0800
     16 C16        -7.2932    0.8193   51.0039 C.3     1  <0>         0.0400
     17 N17        -6.7766    1.9216   51.8261 N.3     1  <0>        -0.5300
     18 C18        -6.1582    2.9580   50.9886 C.3     1  <0>         0.1000
     19 C19        -4.6832    3.0323   51.2886 C.ar    1  <0>         0.1300
     20 C20        -4.2432    2.8894   52.5907 C.ar    1  <0>        -0.1500
     21 C21        -2.8839    2.9588   52.8561 C.ar    1  <0>        -0.0700
     22 C22        -2.0148    3.1705   51.7969 C.ar    1  <0>        -0.1700
     23 C23        -2.5284    3.3043   50.5206 C.ar    1  <0>         0.1000
     24 N24        -3.8269    3.2276   50.3048 N.ar    1  <0>        -0.4800
     25 C25        -7.8302    2.4913   52.6765 C.3     1  <0>         0.0400
     26 C26        -8.3254    1.4266   53.6539 C.3     1  <0>         0.1100
     27 H27       -10.1283   -0.7544   55.6581 H       1  <0>         0.4100
     28 H28       -11.5958    1.5225   56.4015 H       1  <0>         0.0800
     29 H29       -12.7645    0.2341   56.0241 H       1  <0>         0.0800
     30 H30       -10.4810    0.0479   58.0408 H       1  <0>         0.0900
     31 H31       -12.2090    0.2201   58.4315 H       1  <0>         0.0900
     32 H32        -9.8068   -2.1396   58.5916 H       1  <0>         0.1400
     33 H33       -10.1389   -4.5731   58.4123 H       1  <0>         0.1600
     34 H34       -13.7861   -4.0414   56.5044 H       1  <0>         0.1600
     35 H35       -13.5673   -1.5918   56.6332 H       1  <0>         0.1400
     36 H36        -6.9089   -0.7437   52.4419 H       1  <0>         0.0800
     37 H37        -8.2522   -1.0882   51.3207 H       1  <0>         0.1400
     38 H38        -6.5037    0.4547   50.3468 H       1  <0>         0.0900
     39 H39        -8.1311    1.1747   50.4041 H       1  <0>         0.0400
     40 H40        -6.3031    2.7098   49.9372 H       1  <0>         0.0900
     41 H41        -6.6213    3.9215   51.2016 H       1  <0>         0.0600
     42 H42        -4.9490    2.7259   53.3916 H       1  <0>         0.1400
     43 H43        -2.5111    2.8510   53.8640 H       1  <0>         0.1400
     44 H44        -0.9500    3.2305   51.9669 H       1  <0>         0.1400
     45 H45        -1.8581    3.4698   49.6902 H       1  <0>         0.1600
     46 H46        -7.4303    3.3393   53.2322 H       1  <0>         0.1000
     47 H47        -8.6607    2.8234   52.0534 H       1  <0>         0.0400
     48 H48        -9.1832    1.8084   54.2076 H       1  <0>         0.1000
     49 H49        -7.5256    1.1653   54.3468 H       1  <0>         0.0800
@<TRIPOS>BOND
     1     1     2    2
     2     2     3   am
     3     2    12    1
     4     3     4    1
     5     3    27    1
     6     4     5    1
     7     4    28    1
     8     4    29    1
     9     5     6    1
    10     5    30    1
    11     5    31    1
    12     6    11   ar
    13     6     7   ar
    14     7     8   ar
    15     7    32    1
    16     8     9   ar
    17     8    33    1
    18     9    10   ar
    19    10    11   ar
    20    10    34    1
    21    11    35    1
    22    12    13    2
    23    12    14   am
    24    14    26    1
    25    14    15    1
    26    15    16    1
    27    15    36    1
    28    15    37    1
    29    16    17    1
    30    16    38    1
    31    16    39    1
    32    17    18    1
    33    17    25    1
    34    18    19    1
    35    18    40    1
    36    18    41    1
    37    19    24   ar
    38    19    20   ar
    39    20    21   ar
    40    20    42    1
    41    21    22   ar
    42    21    43    1
    43    22    23   ar
    44    22    44    1
    45    23    24   ar
    46    23    45    1
    47    25    26    1
    48    25    46    1
    49    25    47    1
    50    26    48    1
    51    26    49    1
@<TRIPOS>SUBSTRUCTURE
     1 <0>         1 TEMP              0 ****  ****    0 ROOT


##########                                Name:    ZINC000066361645
##########                DOCK_Rotatable_Bonds:                   8
##########                         Heavy_Atoms:                  27
##########                    Molecular_Weight:             392.519
##########                DOCK_Rotatable_Bonds:                   8
##########                       Formal_Charge:           0.0100004
##########                     HBond_Acceptors:                   7
##########                        HBond_Donors:                   2
##########                         Heavy_Atoms:                  27
##########                          Grid_Score:          -31.652420
##########                     Grid_vdw_energy:          -31.206772
##########                      Grid_es_energy:           -0.445649
##########           Internal_energy_repulsive:            9.246922

@<TRIPOS>MOLECULE
ZINC000066361645
 55 57 1 0 0
SMALL
USER_CHARGES


@<TRIPOS>ATOM
      1 C1         -7.9954    2.1541   56.2054 C.3     1  ZINC000066361645   -0.1400
      2 S2         -9.0189    2.6330   54.7864 S.3     1  ZINC000066361645   -0.1100
      3 C3         -9.6667    1.0928   54.2272 C.ar    1  ZINC000066361645   -0.1200
      4 C4        -10.5427    0.3758   55.0283 C.ar    1  ZINC000066361645   -0.1100
      5 C5        -11.0540   -0.8366   54.5886 C.ar    1  ZINC000066361645    0.0500
      6 C6        -10.6896   -1.3333   53.3432 C.ar    1  ZINC000066361645    0.0700
      7 C7         -9.8120   -0.6186   52.5410 C.ar    1  ZINC000066361645   -0.1100
      8 C8         -9.3038    0.5954   52.9760 C.ar    1  ZINC000066361645    0.1800
      9 N9         -8.4166    1.3173   52.1633 N.am    1  ZINC000066361645   -0.6600
     10 C10        -7.2436    0.7674   51.7919 C.2     1  ZINC000066361645    0.5100
     11 O11        -6.9548   -0.3518   52.1602 O.2     1  ZINC000066361645   -0.5000
     12 C12        -6.2908    1.5428   50.9191 C.3     1  ZINC000066361645   -0.1500
     13 C13        -6.0410    2.9207   51.5352 C.3     1  ZINC000066361645    0.1600
     14 H14        -6.8241    3.1418   52.2604 H       1  ZINC000066361645    0.1000
     15 C15        -6.0522    3.9819   50.4331 C.3     1  ZINC000066361645   -0.1600
     16 N16        -4.7385    2.9270   52.2058 N.am    1  ZINC000066361645   -0.7200
     17 C17        -4.6311    3.3948   53.4652 C.2     1  ZINC000066361645    0.5300
     18 O18        -5.6130    3.8094   54.0438 O.2     1  ZINC000066361645   -0.5400
     19 C19        -3.2909    3.4028   54.1543 C.3     1  ZINC000066361645   -0.1100
     20 C20        -2.5751    4.7231   53.8622 C.3     1  ZINC000066361645   -0.1100
     21 C21        -1.2145    4.7312   54.5618 C.3     1  ZINC000066361645   -0.1200
     22 C22        -1.4163    4.5836   56.0712 C.3     1  ZINC000066361645   -0.1200
     23 C23        -2.1321    3.2633   56.3634 C.3     1  ZINC000066361645   -0.1200
     24 C24        -3.4928    3.2552   55.6638 C.3     1  ZINC000066361645   -0.1000
     25 O25       -11.1884   -2.5186   52.8928 O.3     1  ZINC000066361645   -0.3000
     26 C26       -11.7695   -3.3862   53.8720 C.3     1  ZINC000066361645    0.0200
     27 C27       -12.6947   -2.5499   54.7664 C.3     1  ZINC000066361645    0.0200
     28 O28       -11.9101   -1.5281   55.3910 O.3     1  ZINC000066361645   -0.3100
     29 H29        -8.6184    1.6650   56.9542 H       1  ZINC000066361645    0.0900
     30 H30        -7.2161    1.4668   55.8759 H       1  ZINC000066361645    0.0900
     31 H31        -7.5364    3.0427   56.6387 H       1  ZINC000066361645    0.1100
     32 H32       -10.8272    0.7619   55.9960 H       1  ZINC000066361645    0.1400
     33 H33        -9.5273   -1.0068   51.5743 H       1  ZINC000066361645    0.1600
     34 H34        -8.6476    2.2122   51.8689 H       1  ZINC000066361645    0.4100
     35 H35        -5.3471    1.0027   50.8421 H       1  ZINC000066361645    0.1000
     36 H36        -6.7232    1.6620   49.9256 H       1  ZINC000066361645    0.1200
     37 H37        -5.2691    3.7608   49.7078 H       1  ZINC000066361645    0.0600
     38 H38        -7.0213    3.9773   49.9341 H       1  ZINC000066361645    0.0700
     39 H39        -5.8742    4.9636   50.8720 H       1  ZINC000066361645    0.0700
     40 H40        -3.9533    2.5942   51.7434 H       1  ZINC000066361645    0.4000
     41 H41        -2.6877    2.5732   53.7856 H       1  ZINC000066361645    0.1000
     42 H42        -2.4313    4.8283   52.7868 H       1  ZINC000066361645    0.0600
     43 H43        -3.1782    5.5528   54.2310 H       1  ZINC000066361645    0.0700
     44 H44        -0.6114    3.9015   54.1931 H       1  ZINC000066361645    0.0600
     45 H45        -0.7045    5.6718   54.3537 H       1  ZINC000066361645    0.0700
     46 H46        -0.4469    4.5894   56.5696 H       1  ZINC000066361645    0.0600
     47 H47        -2.0194    5.4132   56.4400 H       1  ZINC000066361645    0.0600
     48 H48        -1.5289    2.4337   55.9946 H       1  ZINC000066361645    0.0600
     49 H49        -2.2758    3.1581   57.4388 H       1  ZINC000066361645    0.0700
     50 H50        -4.0958    4.0848   56.0326 H       1  ZINC000066361645    0.0700
     51 H51        -4.0027    2.3146   55.8719 H       1  ZINC000066361645    0.0700
     52 H52       -12.3456   -4.1672   53.3758 H       1  ZINC000066361645    0.1300
     53 H53       -10.9826   -3.8371   54.4768 H       1  ZINC000066361645    0.0800
     54 H54       -13.4775   -2.0936   54.1606 H       1  ZINC000066361645    0.0800
     55 H55       -13.1432   -3.1868   55.5289 H       1  ZINC000066361645    0.1200
@<TRIPOS>BOND
     1     1     2    1
     2     1    29    1
     3     1    30    1
     4     1    31    1
     5     2     3    1
     6     3     8   ar
     7     3     4   ar
     8     4     5   ar
     9     4    32    1
    10     5    28    1
    11     5     6   ar
    12     6     7   ar
    13     6    25    1
    14     7     8   ar
    15     7    33    1
    16     8     9    1
    17     9    10   am
    18     9    34    1
    19    10    11    2
    20    10    12    1
    21    12    13    1
    22    12    35    1
    23    12    36    1
    24    13    14    1
    25    13    15    1
    26    13    16    1
    27    15    37    1
    28    15    38    1
    29    15    39    1
    30    16    17   am
    31    16    40    1
    32    17    18    2
    33    17    19    1
    34    19    24    1
    35    19    20    1
    36    19    41    1
    37    20    21    1
    38    20    42    1
    39    20    43    1
    40    21    22    1
    41    21    44    1
    42    21    45    1
    43    22    23    1
    44    22    46    1
    45    22    47    1
    46    23    24    1
    47    23    48    1
    48    23    49    1
    49    24    50    1
    50    24    51    1
    51    25    26    1
    52    26    27    1
    53    26    52    1
    54    26    53    1
    55    27    28    1
    56    27    54    1
    57    27    55    1
@<TRIPOS>SUBSTRUCTURE
     1 ZINC000066361645        1 TEMP              0 ****  ****    0 ROOT


##########                                Name:    ZINC000047262406
##########                DOCK_Rotatable_Bonds:                   6
##########                         Heavy_Atoms:                  28
##########                    Molecular_Weight:             417.919
##########                DOCK_Rotatable_Bonds:                   6
##########                       Formal_Charge:          -0.0100002
##########                     HBond_Acceptors:                   9
##########                        HBond_Donors:                   1
##########                         Heavy_Atoms:                  28
##########                          Grid_Score:          -31.623140
##########                     Grid_vdw_energy:          -31.221127
##########                      Grid_es_energy:           -0.402014
##########           Internal_energy_repulsive:           12.426680

@<TRIPOS>MOLECULE
ZINC000047262406
 48 51 1 0 0
SMALL
USER_CHARGES


@<TRIPOS>ATOM
      1 C1        -11.8126   -2.9632   53.9500 C.3     1  ZINC000047262406   -0.1500
      2 C2        -12.0961   -1.5049   54.3165 C.3     1  ZINC000047262406    0.1800
      3 H3        -13.1605   -1.3013   54.1994 H       1  ZINC000047262406    0.0800
      4 C4        -11.3080   -0.5965   53.4084 C.2     1  ZINC000047262406    0.1700
      5 N5        -11.8026    0.2638   52.5637 N.2     1  ZINC000047262406   -0.2500
      6 N6        -10.8450    0.8688   51.9536 N.2     1  ZINC000047262406   -0.2700
      7 C7         -9.6933    0.4101   52.3932 C.2     1  ZINC000047262406    0.2400
      8 C8         -8.3574    0.8393   51.9529 C.2     1  ZINC000047262406   -0.1500
      9 C9         -7.1930    0.1858   52.2187 C.2     1  ZINC000047262406   -0.0600
     10 C10        -6.0695    0.7876   51.6962 C.2     1  ZINC000047262406   -0.1400
     11 C11        -6.2934    1.9145   51.0125 C.2     1  ZINC000047262406   -0.1900
     12 S12        -8.0144    2.2736   50.9943 S.3     1  ZINC000047262406    0.1700
     13 O13        -9.9669   -0.5233   53.3279 O.3     1  ZINC000047262406   -0.2200
     14 N14       -11.7021   -1.2650   55.7111 N.3     1  ZINC000047262406   -0.5200
     15 C15       -12.6419   -1.9042   56.6409 C.3     1  ZINC000047262406    0.0500
     16 C16       -12.1233   -1.7582   58.0733 C.3     1  ZINC000047262406   -0.1000
     17 C17       -11.9763   -0.2714   58.4086 C.3     1  ZINC000047262406   -0.1100
     18 C18       -11.4092   -0.1219   59.7968 C.2     1  ZINC000047262406    0.5100
     19 O19       -12.0741   -0.4375   60.7607 O.2     1  ZINC000047262406   -0.4600
     20 N20       -10.1630    0.3624   59.9671 N.am    1  ZINC000047262406   -0.6600
     21 C21        -9.6382    0.5007   61.2518 C.ar    1  ZINC000047262406    0.3600
     22 C22        -8.9850   -0.5717   61.8474 C.ar    1  ZINC000047262406   -0.2000
     23 C23        -8.4683   -0.4216   63.1226 C.ar    1  ZINC000047262406   -0.0400
     24 C24        -8.6240    0.8022   63.7604 C.ar    1  ZINC000047262406   -0.1200
     25 Cl25       -7.9944    1.0443   65.3600 Cl      1  ZINC000047262406   -0.0500
     26 C26        -9.2851    1.8257   63.1075 C.ar    1  ZINC000047262406    0.1500
     27 N27        -9.7623    1.6536   61.8899 N.ar    1  ZINC000047262406   -0.4600
     28 C28       -11.0304    0.3809   57.3964 C.3     1  ZINC000047262406   -0.1100
     29 C29       -11.5807    0.1728   55.9837 C.3     1  ZINC000047262406    0.0600
     30 H30       -12.3826   -3.6202   54.6069 H       1  ZINC000047262406    0.0800
     31 H31       -12.1049   -3.1413   52.9152 H       1  ZINC000047262406    0.0700
     32 H32       -10.7481   -3.1668   54.0671 H       1  ZINC000047262406    0.0800
     33 H33        -7.1535   -0.7288   52.7918 H       1  ZINC000047262406    0.1600
     34 H34        -5.0788    0.3787   51.8297 H       1  ZINC000047262406    0.1600
     35 H35        -5.5302    2.5135   50.5379 H       1  ZINC000047262406    0.1800
     36 H36       -13.6177   -1.4255   56.5574 H       1  ZINC000047262406    0.0400
     37 H37       -12.7342   -2.9619   56.3942 H       1  ZINC000047262406    0.0900
     38 H38       -12.8289   -2.2191   58.7645 H       1  ZINC000047262406    0.0800
     39 H39       -11.1538   -2.2486   58.1611 H       1  ZINC000047262406    0.0900
     40 H40       -12.9523    0.2112   58.3599 H       1  ZINC000047262406    0.1000
     41 H41        -9.6313    0.6149   59.1961 H       1  ZINC000047262406    0.4200
     42 H42        -8.8823   -1.5099   61.3224 H       1  ZINC000047262406    0.1500
     43 H43        -7.9561   -1.2376   63.6106 H       1  ZINC000047262406    0.1500
     44 H44        -9.4092    2.7793   63.5991 H       1  ZINC000047262406    0.1700
     45 H45       -10.9552    1.4482   57.6042 H       1  ZINC000047262406    0.0700
     46 H46       -10.0437   -0.0759   57.4736 H       1  ZINC000047262406    0.0800
     47 H47       -10.9022    0.6238   55.2596 H       1  ZINC000047262406    0.0700
     48 H48       -12.5614    0.6418   55.9032 H       1  ZINC000047262406    0.0400
@<TRIPOS>BOND
     1     1     2    1
     2     1    30    1
     3     1    31    1
     4     1    32    1
     5     2     3    1
     6     2     4    1
     7     2    14    1
     8     4    13    1
     9     4     5    2
    10     5     6    1
    11     6     7    2
    12     7     8    1
    13     7    13    1
    14     8    12    1
    15     8     9    2
    16     9    10    1
    17     9    33    1
    18    10    11    2
    19    10    34    1
    20    11    12    1
    21    11    35    1
    22    14    29    1
    23    14    15    1
    24    15    16    1
    25    15    36    1
    26    15    37    1
    27    16    17    1
    28    16    38    1
    29    16    39    1
    30    17    18    1
    31    17    28    1
    32    17    40    1
    33    18    19    2
    34    18    20   am
    35    20    21    1
    36    20    41    1
    37    21    27   ar
    38    21    22   ar
    39    22    23   ar
    40    22    42    1
    41    23    24   ar
    42    23    43    1
    43    24    25    1
    44    24    26   ar
    45    26    27   ar
    46    26    44    1
    47    28    29    1
    48    28    45    1
    49    28    46    1
    50    29    47    1
    51    29    48    1
@<TRIPOS>SUBSTRUCTURE
     1 ZINC000047262406        1 TEMP              0 ****  ****    0 ROOT


##########                                Name:    ZINC000558213406
##########                DOCK_Rotatable_Bonds:                   8
##########                         Heavy_Atoms:                  30
##########                    Molecular_Weight:               408.5
##########                DOCK_Rotatable_Bonds:                   8
##########                       Formal_Charge:          -0.0299987
##########                     HBond_Acceptors:                   7
##########                        HBond_Donors:                   2
##########                         Heavy_Atoms:                  30
##########                          Grid_Score:          -31.619022
##########                     Grid_vdw_energy:          -31.178303
##########                      Grid_es_energy:           -0.440720
##########           Internal_energy_repulsive:           10.928511

@<TRIPOS>MOLECULE
ZINC000558213406
 58 61 1 0 0
SMALL
USER_CHARGES


@<TRIPOS>ATOM
      1 O1         -9.8773    1.6281   57.1586 O.2     1  ZINC000558213406   -0.5700
      2 C2         -8.6700    1.6657   57.2978 C.2     1  ZINC000558213406    0.7100
      3 N3         -8.1281    1.5202   58.5232 N.am    1  ZINC000558213406   -0.6800
      4 C4         -8.9564    1.3314   59.6377 C.ar    1  ZINC000558213406    0.1700
      5 C5         -9.3954    0.0563   59.9686 C.ar    1  ZINC000558213406   -0.1300
      6 C6        -10.2111   -0.1292   61.0672 C.ar    1  ZINC000558213406   -0.1100
      7 C7        -10.5925    0.9581   61.8400 C.ar    1  ZINC000558213406    0.0600
      8 O8        -11.3960    0.7749   62.9213 O.3     1  ZINC000558213406   -0.2500
      9 C9        -10.9001    1.0930   64.1459 C.ar    1  ZINC000558213406    0.0700
     10 C10        -9.5395    0.9704   64.4099 C.ar    1  ZINC000558213406   -0.1500
     11 C11        -9.0811    1.3067   65.6735 C.ar    1  ZINC000558213406   -0.1300
     12 C12        -9.9828    1.7496   66.6228 C.ar    1  ZINC000558213406    0.0600
     13 N13       -11.2668    1.8541   66.3404 N.ar    1  ZINC000558213406   -0.4500
     14 C14       -11.7426    1.5503   65.1494 C.ar    1  ZINC000558213406    0.0800
     15 C15       -10.1536    2.2323   61.5100 C.ar    1  ZINC000558213406   -0.1000
     16 C16        -9.3336    2.4183   60.4148 C.ar    1  ZINC000558213406   -0.1100
     17 N17        -7.8733    1.8473   56.2260 N.am    1  ZINC000558213406   -0.7300
     18 C18        -8.4624    2.0054   54.8939 C.3     1  ZINC000558213406    0.1500
     19 H19        -9.1373    1.1788   54.6716 H       1  ZINC000558213406    0.1100
     20 C20        -9.2021    3.3644   54.7787 C.3     1  ZINC000558213406   -0.1400
     21 C21        -9.1269    3.6311   53.2545 C.3     1  ZINC000558213406    0.1000
     22 N22        -7.8000    3.1327   52.8492 N.am    1  ZINC000558213406   -0.6200
     23 C23        -7.1047    3.5391   51.7684 C.2     1  ZINC000558213406    0.5400
     24 O24        -7.5667    4.3860   51.0335 O.2     1  ZINC000558213406   -0.5300
     25 C25        -5.7533    2.9410   51.4732 C.3     1  ZINC000558213406   -0.1000
     26 C26        -5.4201    3.1395   49.9933 C.3     1  ZINC000558213406   -0.1100
     27 C27        -4.0480    2.5324   49.6936 C.3     1  ZINC000558213406   -0.1200
     28 C28        -2.9864    3.2224   50.5524 C.3     1  ZINC000558213406   -0.1200
     29 C29        -3.3197    3.0239   52.0324 C.3     1  ZINC000558213406   -0.1200
     30 C30        -4.6918    3.6311   52.3321 C.3     1  ZINC000558213406   -0.1100
     31 C31        -7.3603    2.1147   53.8191 C.3     1  ZINC000558213406    0.1000
     32 H32        -7.1648    1.5461   58.6337 H       1  ZINC000558213406    0.4100
     33 H33        -9.0992   -0.7900   59.3667 H       1  ZINC000558213406    0.1300
     34 H34       -10.5526   -1.1210   61.3246 H       1  ZINC000558213406    0.1400
     35 H35        -8.8576    0.6213   63.6487 H       1  ZINC000558213406    0.1400
     36 H36        -8.0315    1.2235   65.9139 H       1  ZINC000558213406    0.1400
     37 H37        -9.6312    2.0132   67.6094 H       1  ZINC000558213406    0.1600
     38 H38       -12.8004    1.6490   64.9553 H       1  ZINC000558213406    0.1700
     39 H39       -10.4507    3.0784   62.1121 H       1  ZINC000558213406    0.1400
     40 H40        -8.9919    3.4102   60.1582 H       1  ZINC000558213406    0.1500
     41 H41        -6.9100    1.8732   56.3365 H       1  ZINC000558213406    0.4000
     42 H42       -10.2370    3.2751   55.1090 H       1  ZINC000558213406    0.0900
     43 H43        -8.6808    4.1416   55.3374 H       1  ZINC000558213406    0.0800
     44 H44        -9.9129    3.0836   52.7344 H       1  ZINC000558213406    0.0700
     45 H45        -9.2093    4.6988   53.0518 H       1  ZINC000558213406    0.0800
     46 H46        -5.7697    1.8755   51.7024 H       1  ZINC000558213406    0.0900
     47 H47        -6.1765    2.6479   49.3813 H       1  ZINC000558213406    0.0600
     48 H48        -5.4038    4.2050   49.7642 H       1  ZINC000558213406    0.0700
     49 H49        -4.0644    1.4668   49.9226 H       1  ZINC000558213406    0.0600
     50 H50        -3.8106    2.6738   48.6393 H       1  ZINC000558213406    0.0700
     51 H51        -2.0090    2.7899   50.3389 H       1  ZINC000558213406    0.0600
     52 H52        -2.9701    4.2880   50.3233 H       1  ZINC000558213406    0.0600
     53 H53        -3.3360    1.9584   52.2615 H       1  ZINC000558213406    0.0600
     54 H54        -2.5633    3.5156   52.6442 H       1  ZINC000558213406    0.0700
     55 H55        -4.6754    4.6966   52.1031 H       1  ZINC000558213406    0.0800
     56 H56        -4.9292    3.4897   53.3865 H       1  ZINC000558213406    0.0600
     57 H57        -6.4234    2.4240   54.2822 H       1  ZINC000558213406    0.0800
     58 H58        -7.2293    1.1562   53.3168 H       1  ZINC000558213406    0.0800
@<TRIPOS>BOND
     1     1     2    2
     2     2     3   am
     3     2    17   am
     4     3     4    1
     5     3    32    1
     6     4    16   ar
     7     4     5   ar
     8     5     6   ar
     9     5    33    1
    10     6     7   ar
    11     6    34    1
    12     7     8    1
    13     7    15   ar
    14     8     9    1
    15     9    14   ar
    16     9    10   ar
    17    10    11   ar
    18    10    35    1
    19    11    12   ar
    20    11    36    1
    21    12    13   ar
    22    12    37    1
    23    13    14   ar
    24    14    38    1
    25    15    16   ar
    26    15    39    1
    27    16    40    1
    28    17    18    1
    29    17    41    1
    30    18    19    1
    31    18    31    1
    32    18    20    1
    33    20    21    1
    34    20    42    1
    35    20    43    1
    36    21    22    1
    37    21    44    1
    38    21    45    1
    39    22    23   am
    40    22    31    1
    41    23    24    2
    42    23    25    1
    43    25    30    1
    44    25    26    1
    45    25    46    1
    46    26    27    1
    47    26    47    1
    48    26    48    1
    49    27    28    1
    50    27    49    1
    51    27    50    1
    52    28    29    1
    53    28    51    1
    54    28    52    1
    55    29    30    1
    56    29    53    1
    57    29    54    1
    58    30    55    1
    59    30    56    1
    60    31    57    1
    61    31    58    1
@<TRIPOS>SUBSTRUCTURE
     1 ZINC000558213406        1 TEMP              0 ****  ****    0 ROOT


##########                                Name:    ZINC000762020937
##########                DOCK_Rotatable_Bonds:                  10
##########                         Heavy_Atoms:                  28
##########                    Molecular_Weight:             391.467
##########                DOCK_Rotatable_Bonds:                  10
##########                       Formal_Charge:         -1.8999e-07
##########                     HBond_Acceptors:                   8
##########                        HBond_Donors:                   1
##########                         Heavy_Atoms:                  28
##########                          Grid_Score:          -31.616615
##########                     Grid_vdw_energy:          -31.539463
##########                      Grid_es_energy:           -0.077152
##########           Internal_energy_repulsive:           22.769873

@<TRIPOS>MOLECULE
ZINC000762020937
 57 58 1 0 0
SMALL
USER_CHARGES


@<TRIPOS>ATOM
      1 C1         -6.0181    1.4715   51.1357 C.3     1  ZINC000762020937    0.0200
      2 O2         -6.5055    1.5079   52.4786 O.3     1  ZINC000762020937   -0.3000
      3 C3         -7.7884    1.1048   52.6809 C.ar    1  ZINC000762020937    0.1100
      4 C4         -8.1863   -0.1645   52.2944 C.ar    1  ZINC000762020937   -0.1700
      5 C5         -9.4912   -0.5730   52.5012 C.ar    1  ZINC000762020937   -0.1000
      6 C6        -10.4009    0.2828   53.0929 C.ar    1  ZINC000762020937   -0.1000
      7 C7        -11.8218   -0.1674   53.3155 C.3     1  ZINC000762020937    0.0200
      8 C8        -11.8453   -1.2635   54.3493 C.2     1  ZINC000762020937    0.1900
      9 N9        -12.7016   -1.3896   55.3345 N.2     1  ZINC000762020937   -0.4700
     10 C10       -12.3361   -2.5049   55.9912 C.2     1  ZINC000762020937    0.1600
     11 C11       -13.0099   -3.0845   57.2083 C.3     1  ZINC000762020937    0.2600
     12 H12       -12.5523   -4.0425   57.4553 H       1  ZINC000762020937    0.1200
     13 N13       -12.8547   -2.1638   58.3372 N.am    1  ZINC000762020937   -0.7100
     14 C14       -11.7173   -2.1697   59.0603 C.2     1  ZINC000762020937    0.6600
     15 O15       -10.8200   -2.9377   58.7749 O.2     1  ZINC000762020937   -0.5600
     16 O16       -11.5754   -1.3247   60.0988 O.3     1  ZINC000762020937   -0.3600
     17 C17       -10.3795   -0.5014   60.1200 C.3     1  ZINC000762020937    0.1400
     18 C18       -10.0888    0.0122   58.7085 C.3     1  ZINC000762020937   -0.1800
     19 C19       -10.5944    0.6860   61.0607 C.3     1  ZINC000762020937   -0.1400
     20 C20        -9.1952   -1.3350   60.6134 C.3     1  ZINC000762020937   -0.1800
     21 C21       -14.4980   -3.2897   56.9184 C.3     1  ZINC000762020937   -0.1000
     22 C22       -14.6656   -3.9252   55.5368 C.3     1  ZINC000762020937   -0.1400
     23 C23       -15.1022   -4.2108   57.9802 C.3     1  ZINC000762020937   -0.1400
     24 N24       -11.2957   -2.9913   55.3833 N.2     1  ZINC000762020937   -0.3700
     25 O25       -11.0011   -2.2961   54.4340 O.3     1  ZINC000762020937    0.0900
     26 C26       -10.0101    1.5511   53.4814 C.ar    1  ZINC000762020937   -0.1500
     27 C27        -8.7032    1.9648   53.2819 C.ar    1  ZINC000762020937    0.1000
     28 O28        -8.3173    3.2117   53.6633 O.3     1  ZINC000762020937   -0.3100
     29 C29        -7.6477    3.3274   54.9205 C.3     1  ZINC000762020937    0.0200
     30 H30        -6.0669    0.4498   50.7590 H       1  ZINC000762020937    0.0600
     31 H31        -6.6310    2.1195   50.5090 H       1  ZINC000762020937    0.0600
     32 H32        -4.9847    1.8175   51.1148 H       1  ZINC000762020937    0.1000
     33 H33        -7.4775   -0.8351   51.8313 H       1  ZINC000762020937    0.1400
     34 H34        -9.8001   -1.5630   52.1995 H       1  ZINC000762020937    0.1300
     35 H35       -12.4191    0.6747   53.6651 H       1  ZINC000762020937    0.1200
     36 H36       -12.2351   -0.5422   52.3790 H       1  ZINC000762020937    0.1200
     37 H37       -13.5705   -1.5498   58.5643 H       1  ZINC000762020937    0.4100
     38 H38       -10.9325    0.6061   58.3569 H       1  ZINC000762020937    0.0600
     39 H39        -9.1911    0.6302   58.7244 H       1  ZINC000762020937    0.0700
     40 H40        -9.9357   -0.8338   58.0384 H       1  ZINC000762020937    0.0900
     41 H41       -10.8015    0.3201   62.0663 H       1  ZINC000762020937    0.0700
     42 H42        -9.6967    1.3041   61.0765 H       1  ZINC000762020937    0.0800
     43 H43       -11.4381    1.2799   60.7091 H       1  ZINC000762020937    0.0700
     44 H44        -9.0421   -2.1810   59.9433 H       1  ZINC000762020937    0.0900
     45 H45        -8.2974   -0.7170   60.6293 H       1  ZINC000762020937    0.0700
     46 H46        -9.4023   -1.7009   61.6190 H       1  ZINC000762020937    0.0600
     47 H47       -15.0085   -2.3268   56.9397 H       1  ZINC000762020937    0.0800
     48 H48       -14.1552   -4.8881   55.5155 H       1  ZINC000762020937    0.0600
     49 H49       -15.7258   -4.0715   55.3303 H       1  ZINC000762020937    0.0600
     50 H50       -14.2351   -3.2691   54.7804 H       1  ZINC000762020937    0.0500
     51 H51       -14.9828   -3.7580   58.9645 H       1  ZINC000762020937    0.0500
     52 H52       -16.1624   -4.3569   57.7737 H       1  ZINC000762020937    0.0600
     53 H53       -14.5918   -5.1736   57.9589 H       1  ZINC000762020937    0.0700
     54 H54       -10.7230    2.2179   53.9435 H       1  ZINC000762020937    0.1400
     55 H55        -6.7354    2.7311   54.9025 H       1  ZINC000762020937    0.0600
     56 H56        -7.3955    4.3719   55.1031 H       1  ZINC000762020937    0.1000
     57 H57        -8.3015    2.9673   55.7148 H       1  ZINC000762020937    0.0600
@<TRIPOS>BOND
     1     1     2    1
     2     1    30    1
     3     1    31    1
     4     1    32    1
     5     2     3    1
     6     3    27   ar
     7     3     4   ar
     8     4     5   ar
     9     4    33    1
    10     5     6   ar
    11     5    34    1
    12     6     7    1
    13     6    26   ar
    14     7     8    1
    15     7    35    1
    16     7    36    1
    17     8    25    1
    18     8     9    2
    19     9    10    1
    20    10    11    1
    21    10    24    2
    22    11    12    1
    23    11    13    1
    24    11    21    1
    25    13    14   am
    26    13    37    1
    27    14    15    2
    28    14    16    1
    29    16    17    1
    30    17    18    1
    31    17    19    1
    32    17    20    1
    33    18    38    1
    34    18    39    1
    35    18    40    1
    36    19    41    1
    37    19    42    1
    38    19    43    1
    39    20    44    1
    40    20    45    1
    41    20    46    1
    42    21    22    1
    43    21    23    1
    44    21    47    1
    45    22    48    1
    46    22    49    1
    47    22    50    1
    48    23    51    1
    49    23    52    1
    50    23    53    1
    51    24    25    1
    52    26    27   ar
    53    26    54    1
    54    27    28    1
    55    28    29    1
    56    29    55    1
    57    29    56    1
    58    29    57    1
@<TRIPOS>SUBSTRUCTURE
     1 ZINC000762020937        1 TEMP              0 ****  ****    0 ROOT


##########                                Name:    ZINC000668548901
##########                DOCK_Rotatable_Bonds:                   9
##########                         Heavy_Atoms:                  26
##########                    Molecular_Weight:             374.464
##########                DOCK_Rotatable_Bonds:                   9
##########                       Formal_Charge:         3.53903e-07
##########                     HBond_Acceptors:                   8
##########                        HBond_Donors:                   3
##########                         Heavy_Atoms:                  26
##########                          Grid_Score:          -31.602928
##########                     Grid_vdw_energy:          -28.537252
##########                      Grid_es_energy:           -3.065675
##########           Internal_energy_repulsive:           13.804951

@<TRIPOS>MOLECULE
ZINC000668548901
 48 50 1 0 0
SMALL
USER_CHARGES


@<TRIPOS>ATOM
      1 O1        -10.4544   -0.2955   62.4098 O.2     1  ZINC000668548901   -0.5700
      2 C2         -9.4181    0.2264   62.0465 C.2     1  ZINC000668548901    0.7100
      3 N3         -8.9646    0.0237   60.7936 N.am    1  ZINC000668548901   -0.6800
      4 C4         -9.6817   -0.7898   59.9150 C.ar    1  ZINC000668548901    0.2200
      5 C5         -9.4782   -2.1705   59.8912 C.ar    1  ZINC000668548901   -0.1700
      6 C6        -10.2041   -2.9431   59.0101 C.ar    1  ZINC000668548901    0.1200
      7 N7        -11.0841   -2.3950   58.1931 N.ar    1  ZINC000668548901   -0.4300
      8 C8        -11.3084   -1.0884   58.1828 C.ar    1  ZINC000668548901    0.1100
      9 S9        -12.4967   -0.4162   57.0689 S.3     1  ZINC000668548901    0.0900
     10 C10       -11.7387   -0.6455   55.4948 C.ar    1  ZINC000668548901    0.0900
     11 C11       -10.8874    0.3323   54.9906 C.ar    1  ZINC000668548901   -0.1500
     12 C12       -10.2988    0.1391   53.7537 C.ar    1  ZINC000668548901   -0.0700
     13 C13       -10.5825   -1.0300   53.0601 C.ar    1  ZINC000668548901   -0.1700
     14 C14       -11.4373   -1.9586   53.6206 C.ar    1  ZINC000668548901    0.1000
     15 N15       -11.9805   -1.7500   54.8046 N.ar    1  ZINC000668548901   -0.4200
     16 C16       -10.6207   -0.2452   59.0454 C.ar    1  ZINC000668548901   -0.1800
     17 N17        -8.7256    1.0119   62.8950 N.am    1  ZINC000668548901   -0.7200
     18 C18        -9.2186    1.2323   64.2568 C.3     1  ZINC000668548901    0.1700
     19 H19       -10.1079    0.6246   64.4240 H       1  ZINC000668548901    0.1000
     20 C20        -9.5689    2.7103   64.4395 C.3     1  ZINC000668548901    0.0600
     21 O21       -10.9823    2.8488   64.5982 O.3     1  ZINC000668548901   -0.5700
     22 C22        -8.1345    0.8370   65.2617 C.3     1  ZINC000668548901   -0.1300
     23 H23        -7.8471   -0.2015   65.0977 H       1  ZINC000668548901    0.1000
     24 C24        -8.6731    1.0005   66.6863 C.3     1  ZINC000668548901   -0.1200
     25 C25        -7.5558    0.6770   67.6829 C.3     1  ZINC000668548901   -0.1600
     26 C26        -6.3569    1.5883   67.4069 C.3     1  ZINC000668548901    0.0600
     27 O27        -5.9253    1.4094   66.0565 O.3     1  ZINC000668548901   -0.3800
     28 C28        -6.9128    1.7411   65.0781 C.3     1  ZINC000668548901    0.0700
     29 H29        -8.1399    0.4433   60.5025 H       1  ZINC000668548901    0.4100
     30 H30        -8.7598   -2.6282   60.5554 H       1  ZINC000668548901    0.1500
     31 H31       -10.0504   -4.0119   58.9879 H       1  ZINC000668548901    0.1600
     32 H32       -10.6889    1.2302   55.5568 H       1  ZINC000668548901    0.1400
     33 H33        -9.6339    0.8809   53.3366 H       1  ZINC000668548901    0.1400
     34 H34       -10.1395   -1.2110   52.0920 H       1  ZINC000668548901    0.1400
     35 H35       -11.6610   -2.8690   53.0844 H       1  ZINC000668548901    0.1600
     36 H36       -10.8055    0.8188   59.0348 H       1  ZINC000668548901    0.1400
     37 H37        -7.9009    1.4315   62.6039 H       1  ZINC000668548901    0.4000
     38 H38        -9.0643    3.0966   65.3251 H       1  ZINC000668548901    0.0500
     39 H39        -9.2450    3.2715   63.5630 H       1  ZINC000668548901    0.0600
     40 H40       -11.3409    2.3743   65.3606 H       1  ZINC000668548901    0.3800
     41 H41        -9.0077    2.0273   66.8342 H       1  ZINC000668548901    0.0700
     42 H42        -9.5085    0.3176   66.8408 H       1  ZINC000668548901    0.0700
     43 H43        -7.9140    0.8442   68.6988 H       1  ZINC000668548901    0.0800
     44 H44        -7.2556   -0.3645   67.5684 H       1  ZINC000668548901    0.0700
     45 H45        -6.6471    2.6276   67.5611 H       1  ZINC000668548901    0.0500
     46 H46        -5.5428    1.3335   68.0856 H       1  ZINC000668548901    0.1000
     47 H47        -6.4985    1.5968   64.0803 H       1  ZINC000668548901    0.1000
     48 H48        -7.2109    2.7822   65.2011 H       1  ZINC000668548901    0.0500
@<TRIPOS>BOND
     1     1     2    2
     2     2     3   am
     3     2    17   am
     4     3     4    1
     5     3    29    1
     6     4    16   ar
     7     4     5   ar
     8     5     6   ar
     9     5    30    1
    10     6     7   ar
    11     6    31    1
    12     7     8   ar
    13     8     9    1
    14     8    16   ar
    15     9    10    1
    16    10    15   ar
    17    10    11   ar
    18    11    12   ar
    19    11    32    1
    20    12    13   ar
    21    12    33    1
    22    13    14   ar
    23    13    34    1
    24    14    15   ar
    25    14    35    1
    26    16    36    1
    27    17    18    1
    28    17    37    1
    29    18    19    1
    30    18    20    1
    31    18    22    1
    32    20    21    1
    33    20    38    1
    34    20    39    1
    35    21    40    1
    36    22    23    1
    37    22    28    1
    38    22    24    1
    39    24    25    1
    40    24    41    1
    41    24    42    1
    42    25    26    1
    43    25    43    1
    44    25    44    1
    45    26    27    1
    46    26    45    1
    47    26    46    1
    48    27    28    1
    49    28    47    1
    50    28    48    1
@<TRIPOS>SUBSTRUCTURE
     1 ZINC000668548901        1 TEMP              0 ****  ****    0 ROOT


##########                                Name:    ZINC000281257088
##########                DOCK_Rotatable_Bonds:                   8
##########                         Heavy_Atoms:                  27
##########                    Molecular_Weight:             395.541
##########                DOCK_Rotatable_Bonds:                   8
##########                       Formal_Charge:          -0.0200005
##########                     HBond_Acceptors:                   7
##########                        HBond_Donors:                   1
##########                         Heavy_Atoms:                  27
##########                          Grid_Score:          -31.602814
##########                     Grid_vdw_energy:          -29.068989
##########                      Grid_es_energy:           -2.533825
##########           Internal_energy_repulsive:           25.449699

@<TRIPOS>MOLECULE
ZINC000281257088
 57 58 1 0 0
SMALL
USER_CHARGES


@<TRIPOS>ATOM
      1 C1         -9.8193   -1.6542   59.5390 C.3     1  ZINC000281257088   -0.0700
      2 C2         -9.7473   -0.7478   60.7407 C.2     1  ZINC000281257088    0.1000
      3 N3         -8.7481   -0.6663   61.5815 N.2     1  ZINC000281257088   -0.3000
      4 N4         -9.0708    0.2894   62.5535 N.pl3   1  ZINC000281257088   -0.3700
      5 C5         -8.2271    0.6893   63.6824 C.3     1  ZINC000281257088    0.1500
      6 C6         -8.4438   -0.2771   64.8486 C.3     1  ZINC000281257088   -0.6400
      7 S7         -7.7240    0.4257   66.3581 S.o2    1  ZINC000281257088    2.4300
      8 C8         -9.1125    1.3841   67.0244 C.3     1  ZINC000281257088   -0.6500
      9 O9         -7.4332   -0.6353   67.2575 O.2     1  ZINC000281257088   -0.9300
     10 O10        -6.6883    1.3260   65.9891 O.2     1  ZINC000281257088   -0.9300
     11 C11       -10.2960    0.7766   62.2662 C.2     1  ZINC000281257088    0.0900
     12 C12       -11.0399    1.8281   63.0486 C.3     1  ZINC000281257088   -0.1000
     13 C13       -10.7346    0.1560   61.1466 C.2     1  ZINC000281257088   -0.2300
     14 C14       -12.0569    0.3908   60.4630 C.3     1  ZINC000281257088    0.1400
     15 N15       -13.0084   -0.6536   60.8652 N.3     1  ZINC000281257088   -0.6700
     16 C16       -14.3939   -0.1867   60.7228 C.3     1  ZINC000281257088    0.1400
     17 H17       -14.4613    0.4987   59.8778 H       1  ZINC000281257088    0.0500
     18 C18       -14.8161    0.5254   61.9821 C.ar    1  ZINC000281257088   -0.0800
     19 C19       -15.6199    1.6474   61.9045 C.ar    1  ZINC000281257088   -0.0600
     20 C20       -16.0079    2.3013   63.0587 C.ar    1  ZINC000281257088   -0.1600
     21 C21       -15.5915    1.8319   64.2929 C.ar    1  ZINC000281257088    0.1000
     22 F22       -15.9704    2.4700   65.4218 F       1  ZINC000281257088   -0.1400
     23 C23       -14.7868    0.7077   64.3693 C.ar    1  ZINC000281257088   -0.1600
     24 C24       -14.4042    0.0527   63.2141 C.ar    1  ZINC000281257088   -0.0900
     25 C25       -15.3138   -1.3853   60.4819 C.3     1  ZINC000281257088   -0.0600
     26 C26       -15.7311   -1.4203   59.0104 C.3     1  ZINC000281257088   -0.1400
     27 C27       -14.5714   -2.6765   60.8323 C.3     1  ZINC000281257088   -0.1400
     28 C28       -16.5587   -1.2578   61.3622 C.3     1  ZINC000281257088   -0.1500
     29 H29        -9.4044   -1.1411   58.6715 H       1  ZINC000281257088    0.0800
     30 H30        -9.2466   -2.5612   59.7331 H       1  ZINC000281257088    0.0700
     31 H31       -10.8591   -1.9162   59.3433 H       1  ZINC000281257088    0.0800
     32 H32        -7.1802    0.6650   63.3801 H       1  ZINC000281257088    0.1100
     33 H33        -8.4919    1.6998   63.9938 H       1  ZINC000281257088    0.1100
     34 H34        -9.5121   -0.4357   64.9953 H       1  ZINC000281257088    0.1400
     35 H35        -7.9624   -1.2293   64.6257 H       1  ZINC000281257088    0.1400
     36 H36        -9.9525    0.7179   67.2211 H       1  ZINC000281257088    0.1300
     37 H37        -8.8077    1.8683   67.9522 H       1  ZINC000281257088    0.1300
     38 H38        -9.4117    2.1418   66.3003 H       1  ZINC000281257088    0.1300
     39 H39       -10.7914    2.8151   62.6584 H       1  ZINC000281257088    0.0800
     40 H40       -12.1127    1.6598   62.9547 H       1  ZINC000281257088    0.0900
     41 H41       -10.7535    1.7700   64.0988 H       1  ZINC000281257088    0.0700
     42 H42       -12.4463    1.3674   60.7507 H       1  ZINC000281257088    0.0800
     43 H43       -11.9180    0.3590   59.3823 H       1  ZINC000281257088    0.0300
     44 H44       -12.8570   -1.5022   60.3408 H       1  ZINC000281257088    0.3400
     45 H45       -15.9446    2.0133   60.9417 H       1  ZINC000281257088    0.1400
     46 H46       -16.6353    3.1783   62.9977 H       1  ZINC000281257088    0.1300
     47 H47       -14.4612    0.3409   65.3315 H       1  ZINC000281257088    0.1300
     48 H48       -13.7768   -0.8244   63.2735 H       1  ZINC000281257088    0.1300
     49 H49       -14.8442   -1.5111   58.3833 H       1  ZINC000281257088    0.0600
     50 H50       -16.3865   -2.2742   58.8387 H       1  ZINC000281257088    0.0500
     51 H51       -16.2599   -0.5004   58.7607 H       1  ZINC000281257088    0.0600
     52 H52       -14.2741   -2.6516   61.8806 H       1  ZINC000281257088    0.0500
     53 H53       -15.2268   -3.5304   60.6607 H       1  ZINC000281257088    0.0600
     54 H54       -13.6846   -2.7673   60.2051 H       1  ZINC000281257088    0.0600
     55 H55       -17.1288   -0.3794   61.0600 H       1  ZINC000281257088    0.0500
     56 H56       -17.1765   -2.1486   61.2489 H       1  ZINC000281257088    0.0600
     57 H57       -16.2575   -1.1546   62.4047 H       1  ZINC000281257088    0.0600
@<TRIPOS>BOND
     1     1     2    1
     2     1    29    1
     3     1    30    1
     4     1    31    1
     5     2    13    1
     6     2     3    2
     7     3     4    1
     8     4     5    1
     9     4    11    1
    10     5     6    1
    11     5    32    1
    12     5    33    1
    13     6     7    1
    14     6    34    1
    15     6    35    1
    16     7     8    1
    17     7     9    2
    18     7    10    2
    19     8    36    1
    20     8    37    1
    21     8    38    1
    22    11    12    1
    23    11    13    2
    24    12    39    1
    25    12    40    1
    26    12    41    1
    27    13    14    1
    28    14    15    1
    29    14    42    1
    30    14    43    1
    31    15    16    1
    32    15    44    1
    33    16    17    1
    34    16    18    1
    35    16    25    1
    36    18    24   ar
    37    18    19   ar
    38    19    20   ar
    39    19    45    1
    40    20    21   ar
    41    20    46    1
    42    21    22    1
    43    21    23   ar
    44    23    24   ar
    45    23    47    1
    46    24    48    1
    47    25    26    1
    48    25    27    1
    49    25    28    1
    50    26    49    1
    51    26    50    1
    52    26    51    1
    53    27    52    1
    54    27    53    1
    55    27    54    1
    56    28    55    1
    57    28    56    1
    58    28    57    1
@<TRIPOS>SUBSTRUCTURE
     1 ZINC000281257088        1 TEMP              0 ****  ****    0 ROOT


##########                                Name:    ZINC000512239524
##########                DOCK_Rotatable_Bonds:                   9
##########                         Heavy_Atoms:                  31
##########                    Molecular_Weight:             424.518
##########                DOCK_Rotatable_Bonds:                   9
##########                       Formal_Charge:          0.00999919
##########                     HBond_Acceptors:                   7
##########                        HBond_Donors:                   1
##########                         Heavy_Atoms:                  31
##########                          Grid_Score:          -31.591106
##########                     Grid_vdw_energy:          -31.591362
##########                      Grid_es_energy:            0.000255
##########           Internal_energy_repulsive:           29.792332

@<TRIPOS>MOLECULE
ZINC000512239524
 60 63 1 0 0
SMALL
USER_CHARGES


@<TRIPOS>ATOM
      1 C1        -10.8100   -2.2175   59.8896 C.3     1  ZINC000512239524   -0.1600
      2 C2         -9.9113   -0.9873   60.0310 C.3     1  ZINC000512239524    0.2000
      3 H3         -8.8713   -1.3041   60.1085 H       1  ZINC000512239524    0.1100
      4 N4        -10.0734   -0.1267   58.8565 N.am    1  ZINC000512239524   -0.7400
      5 C5         -9.1232    0.7777   58.5474 C.2     1  ZINC000512239524    0.7100
      6 O6         -8.1312    0.8793   59.2433 O.2     1  ZINC000512239524   -0.5800
      7 N7         -9.2723    1.5694   57.4670 N.am    1  ZINC000512239524   -0.6300
      8 C8         -8.2423    2.5558   57.1138 C.3     1  ZINC000512239524    0.1300
      9 C9         -7.8259    2.3336   55.6563 C.3     1  ZINC000512239524   -0.1100
     10 C10        -9.0680    2.3747   54.7633 C.3     1  ZINC000512239524   -0.1000
     11 C11        -8.6583    2.1903   53.3248 C.2     1  ZINC000512239524    0.5300
     12 O12        -8.7220    1.0930   52.8119 O.2     1  ZINC000512239524   -0.5300
     13 N13        -8.2209    3.2447   52.6082 N.am    1  ZINC000512239524   -0.5800
     14 C14        -7.8243    3.0658   51.2093 C.3     1  ZINC000512239524    0.1500
     15 C15        -6.3366    2.8371   51.1343 C.ar    1  ZINC000512239524   -0.1100
     16 C16        -5.6061    2.6548   52.2937 C.ar    1  ZINC000512239524   -0.0900
     17 C17        -4.2415    2.4450   52.2249 C.ar    1  ZINC000512239524   -0.1200
     18 C18        -3.6074    2.4172   50.9969 C.ar    1  ZINC000512239524   -0.1100
     19 C19        -4.3381    2.5987   49.8376 C.ar    1  ZINC000512239524   -0.1200
     20 C20        -5.7033    2.8041   49.9060 C.ar    1  ZINC000512239524   -0.1100
     21 C21        -8.1422    4.5697   53.2282 C.3     1  ZINC000512239524    0.0700
     22 C22        -8.4451    5.7819   52.3453 C.3     1  ZINC000512239524   -0.1900
     23 C23        -9.4498    5.3424   53.4121 C.3     1  ZINC000512239524   -0.2000
     24 C24       -10.0267    1.2526   55.1681 C.3     1  ZINC000512239524   -0.1400
     25 C25       -10.4652    1.4584   56.6165 C.3     1  ZINC000512239524    0.1100
     26 C26       -10.2974   -0.2230   61.2711 C.ar    1  ZINC000512239524   -0.0800
     27 C27       -11.5063    0.4510   61.3415 C.ar    1  ZINC000512239524   -0.1400
     28 C28       -11.8270    1.1412   62.4955 C.ar    1  ZINC000512239524    0.1000
     29 N29       -10.9990    1.1639   63.5213 N.ar    1  ZINC000512239524   -0.4600
     30 C30        -9.8403    0.5350   63.4918 C.ar    1  ZINC000512239524    0.0800
     31 C31        -9.4529   -0.1818   62.3729 C.ar    1  ZINC000512239524    0.0600
     32 F32        -8.2646   -0.8240   62.3489 F       1  ZINC000512239524   -0.1200
     33 H33       -10.5307   -2.7703   58.9927 H       1  ZINC000512239524    0.0700
     34 H34       -10.6893   -2.8579   60.7635 H       1  ZINC000512239524    0.0700
     35 H35       -11.8500   -1.9007   59.8121 H       1  ZINC000512239524    0.0600
     36 H36       -10.8648   -0.2077   58.3014 H       1  ZINC000512239524    0.3900
     37 H37        -8.6450    3.5620   57.2295 H       1  ZINC000512239524    0.0700
     38 H38        -7.3769    2.4294   57.7645 H       1  ZINC000512239524    0.1000
     39 H39        -7.1330    3.1182   55.3523 H       1  ZINC000512239524    0.0900
     40 H40        -7.3408    1.3622   55.5607 H       1  ZINC000512239524    0.0800
     41 H41        -9.5664    3.3372   54.8784 H       1  ZINC000512239524    0.1000
     42 H42        -8.3456    2.2047   50.7912 H       1  ZINC000512239524    0.0900
     43 H43        -8.0837    3.9589   50.6410 H       1  ZINC000512239524    0.1000
     44 H44        -6.1014    2.6765   53.2532 H       1  ZINC000512239524    0.1300
     45 H45        -3.6707    2.3032   53.1307 H       1  ZINC000512239524    0.1200
     46 H46        -2.5412    2.2540   50.9433 H       1  ZINC000512239524    0.1200
     47 H47        -3.8427    2.5772   48.8781 H       1  ZINC000512239524    0.1200
     48 H48        -6.2742    2.9459   49.0002 H       1  ZINC000512239524    0.1200
     49 H49        -7.3775    4.6846   53.9963 H       1  ZINC000512239524    0.1300
     50 H50        -7.8795    6.6946   52.5323 H       1  ZINC000512239524    0.1100
     51 H51        -8.7029    5.5936   51.3031 H       1  ZINC000512239524    0.1000
     52 H52       -10.3687    4.8649   53.0718 H       1  ZINC000512239524    0.1100
     53 H53        -9.5453    5.9660   54.3010 H       1  ZINC000512239524    0.1000
     54 H54       -10.9004    1.2678   54.5165 H       1  ZINC000512239524    0.0900
     55 H55        -9.5210    0.2913   55.0770 H       1  ZINC000512239524    0.0700
     56 H56       -11.0683    0.6099   56.9398 H       1  ZINC000512239524    0.0800
     57 H57       -11.0492    2.3754   56.6948 H       1  ZINC000512239524    0.0800
     58 H58       -12.1893    0.4375   60.5050 H       1  ZINC000512239524    0.1400
     59 H59       -12.7674    1.6687   62.5575 H       1  ZINC000512239524    0.1700
     60 H60        -9.1881    0.5767   64.3515 H       1  ZINC000512239524    0.1700
@<TRIPOS>BOND
     1     1     2    1
     2     1    33    1
     3     1    34    1
     4     1    35    1
     5     2     3    1
     6     2     4    1
     7     2    26    1
     8     4     5   am
     9     4    36    1
    10     5     6    2
    11     5     7   am
    12     7    25    1
    13     7     8    1
    14     8     9    1
    15     8    37    1
    16     8    38    1
    17     9    10    1
    18     9    39    1
    19     9    40    1
    20    10    11    1
    21    10    24    1
    22    10    41    1
    23    11    12    2
    24    11    13   am
    25    13    14    1
    26    13    21    1
    27    14    15    1
    28    14    42    1
    29    14    43    1
    30    15    20   ar
    31    15    16   ar
    32    16    17   ar
    33    16    44    1
    34    17    18   ar
    35    17    45    1
    36    18    19   ar
    37    18    46    1
    38    19    20   ar
    39    19    47    1
    40    20    48    1
    41    21    23    1
    42    21    22    1
    43    21    49    1
    44    22    23    1
    45    22    50    1
    46    22    51    1
    47    23    52    1
    48    23    53    1
    49    24    25    1
    50    24    54    1
    51    24    55    1
    52    25    56    1
    53    25    57    1
    54    26    31   ar
    55    26    27   ar
    56    27    28   ar
    57    27    58    1
    58    28    29   ar
    59    28    59    1
    60    29    30   ar
    61    30    31   ar
    62    30    60    1
    63    31    32    1
@<TRIPOS>SUBSTRUCTURE
     1 ZINC000512239524        1 TEMP              0 ****  ****    0 ROOT


##########                                Name:    ZINC000437192871
##########                DOCK_Rotatable_Bonds:                   9
##########                         Heavy_Atoms:                  28
##########                    Molecular_Weight:             423.298
##########                DOCK_Rotatable_Bonds:                   9
##########                       Formal_Charge:         -8.9407e-08
##########                     HBond_Acceptors:                   9
##########                        HBond_Donors:                   1
##########                         Heavy_Atoms:                  28
##########                          Grid_Score:          -31.582615
##########                     Grid_vdw_energy:          -30.468283
##########                      Grid_es_energy:           -1.114332
##########           Internal_energy_repulsive:           15.430964

@<TRIPOS>MOLECULE
ZINC000437192871
 48 50 1 0 0
SMALL
USER_CHARGES


@<TRIPOS>ATOM
      1 C1        -11.4691   -1.9839   53.2937 C.3     1  ZINC000437192871   -0.1700
      2 C2        -11.2353   -0.4721   53.3203 C.3     1  ZINC000437192871    0.1300
      3 N3         -9.9058   -0.1739   52.7818 N.pl3   1  ZINC000437192871   -0.3600
      4 C4         -9.1209    0.8653   53.1353 C.2     1  ZINC000437192871    0.0700
      5 C5         -7.9801    0.7853   52.4120 C.2     1  ZINC000437192871   -0.2700
      6 C6         -6.8169    1.7408   52.4823 C.3     1  ZINC000437192871    0.1900
      7 N7         -7.1612    2.9815   51.7834 N.am    1  ZINC000437192871   -0.6000
      8 C8         -6.9667    3.0847   50.3351 C.3     1  ZINC000437192871    0.1100
      9 C9         -5.4716    3.0241   50.0158 C.3     1  ZINC000437192871    0.0600
     10 O10        -4.8044    4.1175   50.6492 O.3     1  ZINC000437192871   -0.5600
     11 C11        -7.6570    4.0280   52.4730 C.2     1  ZINC000437192871    0.6000
     12 O12        -7.8188    3.9423   53.6754 O.2     1  ZINC000437192871   -0.5000
     13 C13        -8.0032    5.2753   51.7705 C.2     1  ZINC000437192871   -0.2200
     14 C14        -7.3096    6.4586   51.7358 C.2     1  ZINC000437192871    0.0100
     15 C15        -6.0037    6.7581   52.4259 C.3     1  ZINC000437192871   -0.0800
     16 O16        -8.0175    7.2924   50.9706 O.3     1  ZINC000437192871    0.1100
     17 N17        -9.0302    6.8010   50.5363 N.2     1  ZINC000437192871   -0.3200
     18 C18        -9.1804    5.5596   50.9232 C.2     1  ZINC000437192871    0.0800
     19 C19       -10.2952    4.6402   50.5908 C.ar    1  ZINC000437192871   -0.0200
     20 C20       -11.1056    4.1291   51.6029 C.ar    1  ZINC000437192871   -0.0700
     21 C21       -12.1421    3.2743   51.2884 C.ar    1  ZINC000437192871   -0.1000
     22 C22       -12.3784    2.9237   49.9700 C.ar    1  ZINC000437192871   -0.0100
     23 Cl23      -13.6847    1.8481   49.5819 Cl      1  ZINC000437192871   -0.0500
     24 C24       -11.5771    3.4279   48.9600 C.ar    1  ZINC000437192871   -0.1100
     25 C25       -10.5404    4.2883   49.2630 C.ar    1  ZINC000437192871    0.0000
     26 Cl26       -9.5362    4.9208   47.9960 Cl      1  ZINC000437192871   -0.0300
     27 C27        -8.0710   -0.3414   51.5882 C.2     1  ZINC000437192871    0.0600
     28 N28        -9.2225   -0.9205   51.8134 N.2     1  ZINC000437192871   -0.2900
     29 H29       -12.4582   -2.2057   53.6943 H       1  ZINC000437192871    0.0800
     30 H30       -11.4039   -2.3437   52.2668 H       1  ZINC000437192871    0.0600
     31 H31       -10.7116   -2.4794   53.9010 H       1  ZINC000437192871    0.0700
     32 H32       -11.9929    0.0234   52.7129 H       1  ZINC000437192871    0.1000
     33 H33       -11.3004   -0.1123   54.3471 H       1  ZINC000437192871    0.0900
     34 H34        -9.3604    1.6250   53.8647 H       1  ZINC000437192871    0.1600
     35 H35        -6.5910    1.9621   53.5254 H       1  ZINC000437192871    0.0900
     36 H36        -5.9454    1.2876   52.0099 H       1  ZINC000437192871    0.0800
     37 H37        -7.4777    2.2588   49.8401 H       1  ZINC000437192871    0.1000
     38 H38        -7.3760    4.0304   49.9799 H       1  ZINC000437192871    0.1000
     39 H39        -5.0593    2.0845   50.3837 H       1  ZINC000437192871    0.0600
     40 H40        -5.3276    3.0862   48.9371 H       1  ZINC000437192871    0.0500
     41 H41        -5.1209    4.9871   50.3689 H       1  ZINC000437192871    0.3800
     42 H42        -5.1797    6.5919   51.7321 H       1  ZINC000437192871    0.1000
     43 H43        -5.9970    7.7970   52.7558 H       1  ZINC000437192871    0.0900
     44 H44        -5.8900    6.1020   53.2889 H       1  ZINC000437192871    0.0900
     45 H45       -10.9223    4.4014   52.6318 H       1  ZINC000437192871    0.1600
     46 H46       -12.7702    2.8776   52.0724 H       1  ZINC000437192871    0.1500
     47 H47       -11.7656    3.1514   47.9332 H       1  ZINC000437192871    0.1500
     48 H48        -7.3187   -0.6780   50.8904 H       1  ZINC000437192871    0.1800
@<TRIPOS>BOND
     1     1     2    1
     2     1    29    1
     3     1    30    1
     4     1    31    1
     5     2     3    1
     6     2    32    1
     7     2    33    1
     8     3    28    1
     9     3     4    1
    10     4     5    2
    11     4    34    1
    12     5     6    1
    13     5    27    1
    14     6     7    1
    15     6    35    1
    16     6    36    1
    17     7     8    1
    18     7    11   am
    19     8     9    1
    20     8    37    1
    21     8    38    1
    22     9    10    1
    23     9    39    1
    24     9    40    1
    25    10    41    1
    26    11    12    2
    27    11    13    1
    28    13    18    1
    29    13    14    2
    30    14    15    1
    31    14    16    1
    32    15    42    1
    33    15    43    1
    34    15    44    1
    35    16    17    1
    36    17    18    2
    37    18    19    1
    38    19    25   ar
    39    19    20   ar
    40    20    21   ar
    41    20    45    1
    42    21    22   ar
    43    21    46    1
    44    22    23    1
    45    22    24   ar
    46    24    25   ar
    47    24    47    1
    48    25    26    1
    49    27    28    2
    50    27    48    1
@<TRIPOS>SUBSTRUCTURE
     1 ZINC000437192871        1 TEMP              0 ****  ****    0 ROOT


##########                                Name:    ZINC000562561773
##########                DOCK_Rotatable_Bonds:                   6
##########                         Heavy_Atoms:                  26
##########                    Molecular_Weight:             371.466
##########                DOCK_Rotatable_Bonds:                   6
##########                       Formal_Charge:           0.0199999
##########                     HBond_Acceptors:                   9
##########                        HBond_Donors:                   0
##########                         Heavy_Atoms:                  26
##########                          Grid_Score:          -31.562376
##########                     Grid_vdw_energy:          -31.557268
##########                      Grid_es_energy:           -0.005108
##########           Internal_energy_repulsive:            9.634173

@<TRIPOS>MOLECULE
ZINC000562561773
 47 50 1 0 0
SMALL
USER_CHARGES


@<TRIPOS>ATOM
      1 C1         -9.5643    4.9526   50.6821 C.3     1  ZINC000562561773   -0.1100
      2 C2         -9.9221    3.5655   51.1504 C.ar    1  ZINC000562561773   -0.0400
      3 C3        -11.2478    3.2175   51.3245 C.ar    1  ZINC000562561773   -0.1200
      4 C4        -11.5823    1.9482   51.7534 C.ar    1  ZINC000562561773   -0.0700
      5 C5        -10.5819    1.0135   52.0121 C.ar    1  ZINC000562561773   -0.0300
      6 C6        -10.9400   -0.3514   52.4726 C.2     1  ZINC000562561773    0.2200
      7 N7        -11.3592   -1.3381   51.7241 N.2     1  ZINC000562561773   -0.3700
      8 O8        -11.5649   -2.3201   52.4056 O.3     1  ZINC000562561773    0.0900
      9 C9        -11.2918   -2.0536   53.6867 C.2     1  ZINC000562561773    0.1900
     10 C10       -11.4174   -3.0081   54.8460 C.3     1  ZINC000562561773   -0.0100
     11 C11       -11.7248   -2.2227   56.1224 C.3     1  ZINC000562561773   -0.1200
     12 S12       -11.7048   -3.3460   57.5416 S.3     1  ZINC000562561773    0.0600
     13 C13       -10.9674   -2.2979   58.7509 C.2     1  ZINC000562561773    0.2100
     14 N14        -9.9113   -2.5740   59.4850 N.2     1  ZINC000562561773   -0.3300
     15 N15        -9.6377   -1.5924   60.2665 N.2     1  ZINC000562561773   -0.0300
     16 N16       -10.4821   -0.6337   60.0942 N.2     1  ZINC000562561773   -0.0700
     17 N17       -11.3777   -1.0544   59.0956 N.pl3   1  ZINC000562561773   -0.3600
     18 C18       -12.5162   -0.3107   58.5511 C.3     1  ZINC000562561773    0.0800
     19 N19       -10.8881   -0.8089   53.7440 N.2     1  ZINC000562561773   -0.4600
     20 C20        -9.2455    1.3627   51.8370 C.ar    1  ZINC000562561773   -0.1100
     21 C21        -8.9178    2.6378   51.4006 C.ar    1  ZINC000562561773    0.0800
     22 N22        -7.5784    2.9928   51.2230 N.3     1  ZINC000562561773   -0.4800
     23 C23        -6.8283    2.8968   52.5014 C.3     1  ZINC000562561773    0.0400
     24 C24        -5.3527    2.7961   52.0400 C.3     1  ZINC000562561773   -0.1200
     25 C25        -5.4470    1.9226   50.7680 C.3     1  ZINC000562561773   -0.1300
     26 C26        -6.9036    2.0657   50.2889 C.3     1  ZINC000562561773    0.0400
     27 H27        -9.5275    4.9701   49.5929 H       1  ZINC000562561773    0.0700
     28 H28       -10.3169    5.6595   51.0316 H       1  ZINC000562561773    0.0600
     29 H29        -8.5899    5.2314   51.0831 H       1  ZINC000562561773    0.0800
     30 H30       -12.0249    3.9406   51.1249 H       1  ZINC000562561773    0.1400
     31 H31       -12.6197    1.6801   51.8886 H       1  ZINC000562561773    0.1400
     32 H32       -12.2249   -3.7136   54.6500 H       1  ZINC000562561773    0.1200
     33 H33       -10.4816   -3.5530   54.9710 H       1  ZINC000562561773    0.1300
     34 H34       -10.9718   -1.4473   56.2622 H       1  ZINC000562561773    0.1100
     35 H35       -12.7091   -1.7621   56.0375 H       1  ZINC000562561773    0.1100
     36 H36       -12.1882    0.2820   57.6971 H       1  ZINC000562561773    0.1000
     37 H37       -13.2886   -1.0106   58.2323 H       1  ZINC000562561773    0.1000
     38 H38       -12.9191    0.3501   59.3187 H       1  ZINC000562561773    0.1100
     39 H39        -8.4667    0.6416   52.0366 H       1  ZINC000562561773    0.1300
     40 H40        -6.9822    3.7907   53.1059 H       1  ZINC000562561773    0.0900
     41 H41        -7.1207    2.0031   53.0529 H       1  ZINC000562561773    0.0500
     42 H42        -4.9549    3.7826   51.8017 H       1  ZINC000562561773    0.0800
     43 H43        -4.7434    2.3067   52.7998 H       1  ZINC000562561773    0.0700
     44 H44        -4.7602    2.2894   50.0052 H       1  ZINC000562561773    0.0800
     45 H45        -5.2278    0.8818   51.0067 H       1  ZINC000562561773    0.0700
     46 H46        -7.3979    1.0944   50.3081 H       1  ZINC000562561773    0.0500
     47 H47        -6.9238    2.4758   49.2793 H       1  ZINC000562561773    0.0800
@<TRIPOS>BOND
     1     1     2    1
     2     1    27    1
     3     1    28    1
     4     1    29    1
     5     2    21   ar
     6     2     3   ar
     7     3     4   ar
     8     3    30    1
     9     4     5   ar
    10     4    31    1
    11     5     6    1
    12     5    20   ar
    13     6    19    1
    14     6     7    2
    15     7     8    1
    16     8     9    1
    17     9    10    1
    18     9    19    2
    19    10    11    1
    20    10    32    1
    21    10    33    1
    22    11    12    1
    23    11    34    1
    24    11    35    1
    25    12    13    1
    26    13    17    1
    27    13    14    2
    28    14    15    1
    29    15    16    2
    30    16    17    1
    31    17    18    1
    32    18    36    1
    33    18    37    1
    34    18    38    1
    35    20    21   ar
    36    20    39    1
    37    21    22    1
    38    22    26    1
    39    22    23    1
    40    23    24    1
    41    23    40    1
    42    23    41    1
    43    24    25    1
    44    24    42    1
    45    24    43    1
    46    25    26    1
    47    25    44    1
    48    25    45    1
    49    26    46    1
    50    26    47    1
@<TRIPOS>SUBSTRUCTURE
     1 ZINC000562561773        1 TEMP              0 ****  ****    0 ROOT


##########                                Name:    ZINC000129637895
##########                DOCK_Rotatable_Bonds:                   7
##########                         Heavy_Atoms:                  26
##########                    Molecular_Weight:             374.464
##########                DOCK_Rotatable_Bonds:                   7
##########                       Formal_Charge:        -5.51343e-07
##########                     HBond_Acceptors:                   8
##########                        HBond_Donors:                   1
##########                         Heavy_Atoms:                  26
##########                          Grid_Score:          -31.534527
##########                     Grid_vdw_energy:          -31.436943
##########                      Grid_es_energy:           -0.097584
##########           Internal_energy_repulsive:           21.248556

@<TRIPOS>MOLECULE
ZINC000129637895
 48 50 1 0 0
SMALL
USER_CHARGES


@<TRIPOS>ATOM
      1 C1        -15.4059   -2.8740   60.6009 C.3     1  ZINC000129637895   -0.1500
      2 C2        -15.7880   -2.6024   59.1445 C.3     1  ZINC000129637895   -0.0500
      3 C3        -15.0100   -3.5240   58.2410 C.2     1  ZINC000129637895    0.0300
      4 C4        -13.8039   -3.2057   57.7376 C.2     1  ZINC000129637895   -0.0200
      5 N5        -13.1076   -2.0189   57.9626 N.am    1  ZINC000129637895   -0.5900
      6 C6        -11.8452   -1.8823   57.5106 C.2     1  ZINC000129637895    0.5000
      7 O7        -11.3150   -2.7922   56.9062 O.2     1  ZINC000129637895   -0.4800
      8 C8        -11.0991   -0.6126   57.7530 C.2     1  ZINC000129637895    0.5200
      9 O9        -11.2759    0.3434   57.0265 O.2     1  ZINC000129637895   -0.5100
     10 N10       -10.2290   -0.5276   58.7788 N.am    1  ZINC000129637895   -0.5800
     11 C11        -9.4881    0.7160   59.0392 C.3     1  ZINC000129637895    0.0800
     12 C12        -9.6663    1.0891   60.5147 C.3     1  ZINC000129637895    0.0400
     13 N13        -9.2795   -0.0521   61.3551 N.3     1  ZINC000129637895   -0.4900
     14 C14        -9.2719    0.3014   62.7064 C.ar    1  ZINC000129637895    0.1500
     15 C15        -8.1253    0.1133   63.4682 C.ar    1  ZINC000129637895   -0.2100
     16 C16        -8.1179    0.4634   64.8046 C.ar    1  ZINC000129637895   -0.0500
     17 C17        -9.2499    1.0007   65.3870 C.ar    1  ZINC000129637895   -0.2300
     18 C18       -10.3983    1.1909   64.6309 C.ar    1  ZINC000129637895    0.1500
     19 O19       -11.5106    1.7200   65.2052 O.3     1  ZINC000129637895   -0.3200
     20 C20       -11.6923    3.1324   65.0875 C.3     1  ZINC000129637895    0.0300
     21 C21       -10.4082    0.8464   63.2887 C.ar    1  ZINC000129637895   -0.1700
     22 C22       -10.1534   -1.2087   61.1184 C.3     1  ZINC000129637895    0.0400
     23 C23        -9.9997   -1.6739   59.6713 C.3     1  ZINC000129637895    0.1100
     24 S24       -13.2601   -4.5555   56.7442 S.3     1  ZINC000129637895    0.2400
     25 C25       -14.6974   -5.4096   57.1003 C.2     1  ZINC000129637895   -0.0300
     26 N26       -15.4510   -4.7126   57.8812 N.2     1  ZINC000129637895   -0.4500
     27 H27       -15.6384   -3.9092   60.8507 H       1  ZINC000129637895    0.0600
     28 H28       -14.3385   -2.6987   60.7353 H       1  ZINC000129637895    0.0500
     29 H29       -15.9686   -2.2073   61.2545 H       1  ZINC000129637895    0.0700
     30 H30       -16.8554   -2.7776   59.0102 H       1  ZINC000129637895    0.0900
     31 H31       -15.5555   -1.5672   58.8948 H       1  ZINC000129637895    0.0700
     32 H32       -13.5315   -1.2917   58.4443 H       1  ZINC000129637895    0.4300
     33 H33        -8.4302    0.5636   58.8252 H       1  ZINC000129637895    0.0900
     34 H34        -9.8805    1.5147   58.4096 H       1  ZINC000129637895    0.1400
     35 H35        -9.0357    1.9459   60.7520 H       1  ZINC000129637895    0.1000
     36 H36       -10.7098    1.3419   60.7025 H       1  ZINC000129637895    0.0500
     37 H37        -7.2395   -0.3072   63.0155 H       1  ZINC000129637895    0.1300
     38 H38        -7.2258    0.3165   65.3953 H       1  ZINC000129637895    0.1300
     39 H39        -9.2412    1.2727   66.4322 H       1  ZINC000129637895    0.1300
     40 H40       -10.8505    3.6469   65.5507 H       1  ZINC000129637895    0.0600
     41 H41       -11.7492    3.4048   64.0336 H       1  ZINC000129637895    0.0600
     42 H42       -12.6159    3.4229   65.5881 H       1  ZINC000129637895    0.1000
     43 H43       -11.3007    0.9940   62.6988 H       1  ZINC000129637895    0.1300
     44 H44        -9.8762   -2.0182   61.7936 H       1  ZINC000129637895    0.1000
     45 H45       -11.1902   -0.9240   61.2978 H       1  ZINC000129637895    0.0500
     46 H46       -10.7280   -2.4567   59.4590 H       1  ZINC000129637895    0.1100
     47 H47        -8.9911   -2.0563   59.5147 H       1  ZINC000129637895    0.0900
     48 H48       -14.9382   -6.3945   56.7281 H       1  ZINC000129637895    0.2000
@<TRIPOS>BOND
     1     1     2    1
     2     1    27    1
     3     1    28    1
     4     1    29    1
     5     2     3    1
     6     2    30    1
     7     2    31    1
     8     3    26    1
     9     3     4    2
    10     4     5    1
    11     4    24    1
    12     5     6   am
    13     5    32    1
    14     6     7    2
    15     6     8    1
    16     8     9    2
    17     8    10   am
    18    10    23    1
    19    10    11    1
    20    11    12    1
    21    11    33    1
    22    11    34    1
    23    12    13    1
    24    12    35    1
    25    12    36    1
    26    13    14    1
    27    13    22    1
    28    14    21   ar
    29    14    15   ar
    30    15    16   ar
    31    15    37    1
    32    16    17   ar
    33    16    38    1
    34    17    18   ar
    35    17    39    1
    36    18    19    1
    37    18    21   ar
    38    19    20    1
    39    20    40    1
    40    20    41    1
    41    20    42    1
    42    21    43    1
    43    22    23    1
    44    22    44    1
    45    22    45    1
    46    23    46    1
    47    23    47    1
    48    24    25    1
    49    25    26    2
    50    25    48    1
@<TRIPOS>SUBSTRUCTURE
     1 ZINC000129637895        1 TEMP              0 ****  ****    0 ROOT


##########                                Name:    ZINC000867639366
##########                DOCK_Rotatable_Bonds:                   6
##########                         Heavy_Atoms:                  25
##########                    Molecular_Weight:             388.509
##########                DOCK_Rotatable_Bonds:                   6
##########                       Formal_Charge:          0.00999961
##########                     HBond_Acceptors:                   9
##########                        HBond_Donors:                   1
##########                         Heavy_Atoms:                  25
##########                          Grid_Score:          -31.505398
##########                     Grid_vdw_energy:          -30.300854
##########                      Grid_es_energy:           -1.204545
##########           Internal_energy_repulsive:           39.228790

@<TRIPOS>MOLECULE
ZINC000867639366
 49 51 1 0 0
SMALL
USER_CHARGES


@<TRIPOS>ATOM
      1 C1        -11.5020    0.1703   52.2566 C.3     1  ZINC000867639366    0.0300
      2 O2        -10.2168    0.7702   52.0829 O.3     1  ZINC000867639366   -0.3800
      3 C3         -9.6721    1.3338   53.2778 C.3     1  ZINC000867639366    0.0800
      4 H4        -10.0970    0.8282   54.1450 H       1  ZINC000867639366    0.0800
      5 C5        -10.0102    2.8251   53.3396 C.3     1  ZINC000867639366   -0.1400
      6 C6         -9.4429    3.5300   52.1054 C.3     1  ZINC000867639366   -0.1200
      7 C7         -7.9184    3.3801   52.0923 C.3     1  ZINC000867639366    0.1500
      8 H8         -7.4920    3.9083   52.9450 H       1  ZINC000867639366    0.0800
      9 C9         -7.3567    3.9639   50.7943 C.3     1  ZINC000867639366   -0.1900
     10 N10        -7.5829    1.9523   52.1792 N.am    1  ZINC000867639366   -0.9800
     11 S11        -6.5839    1.2508   51.0603 S.o2    1  ZINC000867639366    2.6900
     12 O12        -6.3446   -0.0754   51.5115 O.2     1  ZINC000867639366   -0.9500
     13 O13        -7.1359    1.5502   49.7857 O.2     1  ZINC000867639366   -0.9400
     14 C14        -5.0372    2.0908   51.1425 C.ar    1  ZINC000867639366   -0.6300
     15 C15        -4.5359    2.4978   52.3648 C.ar    1  ZINC000867639366   -0.0500
     16 C16        -3.3225    3.1569   52.4294 C.ar    1  ZINC000867639366   -0.0400
     17 C17        -2.6101    3.4085   51.2718 C.ar    1  ZINC000867639366   -0.6300
     18 S18        -1.0638    4.2491   51.3540 S.o2    1  ZINC000867639366    2.7000
     19 O19        -0.6550    4.4696   50.0111 O.2     1  ZINC000867639366   -0.9400
     20 O20        -1.2269    5.2978   52.2989 O.2     1  ZINC000867639366   -0.9500
     21 N21         0.0327    3.1953   52.0095 N.am    1  ZINC000867639366   -1.0800
     22 C22         0.3164    1.9233   51.3407 C.3     1  ZINC000867639366    0.0800
     23 C23         1.3198    1.9407   50.1858 C.3     1  ZINC000867639366   -0.1800
     24 C24         1.7104    1.3214   51.5292 C.3     1  ZINC000867639366   -0.1900
     25 C25        -3.1108    3.0003   50.0496 C.ar    1  ZINC000867639366   -0.0400
     26 C26        -4.3224    2.3378   49.9855 C.ar    1  ZINC000867639366   -0.0400
     27 C27        -8.1503    1.1582   53.2784 C.3     1  ZINC000867639366    0.1200
     28 H28       -11.4314   -0.6343   52.9885 H       1  ZINC000867639366    0.0400
     29 H29       -12.2090    0.9213   52.6093 H       1  ZINC000867639366    0.0400
     30 H30       -11.8460   -0.2338   51.3045 H       1  ZINC000867639366    0.0900
     31 H31       -11.0927    2.9512   53.3644 H       1  ZINC000867639366    0.0700
     32 H32        -9.5735    3.2595   54.2388 H       1  ZINC000867639366    0.0700
     33 H33        -9.8605    3.0796   51.2049 H       1  ZINC000867639366    0.0800
     34 H34        -9.7041    4.5878   52.1383 H       1  ZINC000867639366    0.0800
     35 H35        -7.4941    5.0452   50.7929 H       1  ZINC000867639366    0.0700
     36 H36        -6.2940    3.7326   50.7219 H       1  ZINC000867639366    0.0600
     37 H37        -7.8818    3.5298   49.9435 H       1  ZINC000867639366    0.1000
     38 H38        -5.0925    2.3013   53.2693 H       1  ZINC000867639366    0.1600
     39 H39        -2.9312    3.4755   53.3843 H       1  ZINC000867639366    0.1500
     40 H40         0.4872    3.4204   52.8365 H       1  ZINC000867639366    0.4200
     41 H41        -0.5241    1.2331   51.2672 H       1  ZINC000867639366    0.1400
     42 H42         1.1395    1.2621   49.3521 H       1  ZINC000867639366    0.1100
     43 H43         1.7689    2.8987   49.9237 H       1  ZINC000867639366    0.1000
     44 H44         2.4164    1.8719   52.1509 H       1  ZINC000867639366    0.1000
     45 H45         1.7870    0.2353   51.5794 H       1  ZINC000867639366    0.1000
     46 H46        -2.5541    3.1965   49.1453 H       1  ZINC000867639366    0.1500
     47 H47        -4.7135    2.0189   49.0306 H       1  ZINC000867639366    0.1500
     48 H48        -7.7428    1.5052   54.2280 H       1  ZINC000867639366    0.0900
     49 H49        -7.9032    0.1064   53.1348 H       1  ZINC000867639366    0.1000
@<TRIPOS>BOND
     1     1     2    1
     2     1    28    1
     3     1    29    1
     4     1    30    1
     5     2     3    1
     6     3     4    1
     7     3    27    1
     8     3     5    1
     9     5     6    1
    10     5    31    1
    11     5    32    1
    12     6     7    1
    13     6    33    1
    14     6    34    1
    15     7     8    1
    16     7     9    1
    17     7    10    1
    18     9    35    1
    19     9    36    1
    20     9    37    1
    21    10    11   am
    22    10    27    1
    23    11    12    2
    24    11    13    2
    25    11    14    1
    26    14    26   ar
    27    14    15   ar
    28    15    16   ar
    29    15    38    1
    30    16    17   ar
    31    16    39    1
    32    17    18    1
    33    17    25   ar
    34    18    19    2
    35    18    20    2
    36    18    21   am
    37    21    22    1
    38    21    40    1
    39    22    24    1
    40    22    23    1
    41    22    41    1
    42    23    24    1
    43    23    42    1
    44    23    43    1
    45    24    44    1
    46    24    45    1
    47    25    26   ar
    48    25    46    1
    49    26    47    1
    50    27    48    1
    51    27    49    1
@<TRIPOS>SUBSTRUCTURE
     1 ZINC000867639366        1 TEMP              0 ****  ****    0 ROOT


##########                                Name:    ZINC000470948647
##########                DOCK_Rotatable_Bonds:                   6
##########                         Heavy_Atoms:                  29
##########                    Molecular_Weight:             412.556
##########                DOCK_Rotatable_Bonds:                   6
##########                       Formal_Charge:           0.0100001
##########                     HBond_Acceptors:                   7
##########                        HBond_Donors:                   1
##########                         Heavy_Atoms:                  29
##########                          Grid_Score:          -31.443493
##########                     Grid_vdw_energy:          -31.039648
##########                      Grid_es_energy:           -0.403845
##########           Internal_energy_repulsive:           17.612160

@<TRIPOS>MOLECULE
ZINC000470948647
 57 60 1 0 0
SMALL
USER_CHARGES


@<TRIPOS>ATOM
      1 C1        -14.8625   -4.7737   55.7390 C.3     1  ZINC000470948647   -0.1100
      2 C2        -13.9090   -3.8661   56.4724 C.ar    1  ZINC000470948647   -0.1000
      3 C3        -12.7217   -3.4853   55.8750 C.ar    1  ZINC000470948647   -0.1100
      4 C4        -11.8456   -2.6534   56.5447 C.ar    1  ZINC000470948647   -0.1100
      5 C5        -12.1584   -2.1994   57.8189 C.ar    1  ZINC000470948647    0.1400
      6 N6        -11.2733   -1.3563   58.4998 N.am    1  ZINC000470948647   -0.6700
      7 C7        -11.5966   -0.0640   58.7047 C.2     1  ZINC000470948647    0.5100
      8 O8        -12.6548    0.3681   58.2990 O.2     1  ZINC000470948647   -0.4800
      9 C9        -10.6433    0.8441   59.4381 C.3     1  ZINC000470948647    0.1200
     10 H10       -11.1888    1.7262   59.7731 H       1  ZINC000470948647    0.1200
     11 C11       -10.0984    0.0967   60.6763 C.3     1  ZINC000470948647   -0.0700
     12 S12        -8.4784   -0.5135   60.0468 S.3     1  ZINC000470948647   -0.2500
     13 C13        -8.2223    0.9324   58.9368 C.3     1  ZINC000470948647    0.1600
     14 N14        -9.5958    1.2629   58.5192 N.am    1  ZINC000470948647   -0.6000
     15 C15        -9.8652    1.9103   57.3681 C.2     1  ZINC000470948647    0.6300
     16 O16       -11.0159    2.1617   57.0671 O.2     1  ZINC000470948647   -0.5100
     17 C17        -8.7623    2.3144   56.4725 C.2     1  ZINC000470948647   -0.0100
     18 N18        -8.5986    1.9503   55.2163 N.2     1  ZINC000470948647   -0.2700
     19 N19        -7.5338    2.4861   54.7372 N.pl3   1  ZINC000470948647   -0.2700
     20 C20        -7.0443    2.2989   53.3691 C.3     1  ZINC000470948647    0.1500
     21 C21        -7.7543    1.1024   52.7325 C.3     1  ZINC000470948647   -0.1300
     22 C22        -7.2432    0.9070   51.3037 C.3     1  ZINC000470948647   -0.1200
     23 C23        -7.5297    2.1659   50.4829 C.3     1  ZINC000470948647   -0.1300
     24 C24        -6.8197    3.3624   51.1194 C.3     1  ZINC000470948647   -0.1200
     25 C25        -7.3309    3.5579   52.5482 C.3     1  ZINC000470948647   -0.1300
     26 C26        -6.9307    3.2468   55.6759 C.2     1  ZINC000470948647   -0.0100
     27 C27        -7.6842    3.1711   56.7979 C.2     1  ZINC000470948647   -0.1700
     28 C28       -13.3522   -2.5834   58.4162 C.ar    1  ZINC000470948647   -0.1100
     29 C29       -13.6959   -2.0925   59.7989 C.3     1  ZINC000470948647   -0.1100
     30 C30       -14.2260   -3.4113   57.7395 C.ar    1  ZINC000470948647   -0.1000
     31 H31       -15.5570   -4.1728   55.1516 H       1  ZINC000470948647    0.0700
     32 H32       -14.3006   -5.4315   55.0759 H       1  ZINC000470948647    0.0700
     33 H33       -15.4198   -5.3733   56.4588 H       1  ZINC000470948647    0.0700
     34 H34       -12.4789   -3.8388   54.8838 H       1  ZINC000470948647    0.1200
     35 H35       -10.9179   -2.3569   56.0777 H       1  ZINC000470948647    0.1400
     36 H36       -10.4270   -1.7018   58.8244 H       1  ZINC000470948647    0.4100
     37 H37        -9.9607    0.7783   61.5158 H       1  ZINC000470948647    0.1200
     38 H38       -10.7496   -0.7331   60.9508 H       1  ZINC000470948647    0.1200
     39 H39        -7.7718    1.7625   59.4810 H       1  ZINC000470948647    0.1000
     40 H40        -7.6124    0.6563   58.0766 H       1  ZINC000470948647    0.1400
     41 H41        -5.9701    2.1152   53.3894 H       1  ZINC000470948647    0.1100
     42 H42        -7.5502    0.2055   53.3174 H       1  ZINC000470948647    0.0800
     43 H43        -8.8286    1.2862   52.7122 H       1  ZINC000470948647    0.0800
     44 H44        -6.1690    0.7233   51.3241 H       1  ZINC000470948647    0.0700
     45 H45        -7.7491    0.0546   50.8503 H       1  ZINC000470948647    0.0800
     46 H46        -7.1656    2.0267   49.4651 H       1  ZINC000470948647    0.0700
     47 H47        -8.6040    2.3497   50.4625 H       1  ZINC000470948647    0.0700
     48 H48        -5.7456    3.1787   51.1398 H       1  ZINC000470948647    0.0700
     49 H49        -7.0239    4.2593   50.5346 H       1  ZINC000470948647    0.0700
     50 H50        -8.4052    3.7416   52.5279 H       1  ZINC000470948647    0.0700
     51 H51        -6.8251    4.4102   53.0017 H       1  ZINC000470948647    0.0700
     52 H52        -6.0198    3.8137   55.5528 H       1  ZINC000470948647    0.1800
     53 H53        -7.4977    3.6566   57.7444 H       1  ZINC000470948647    0.1600
     54 H54       -14.2463   -1.1545   59.7250 H       1  ZINC000470948647    0.0700
     55 H55       -14.3113   -2.8358   60.3058 H       1  ZINC000470948647    0.0700
     56 H56       -12.7790   -1.9320   60.3659 H       1  ZINC000470948647    0.0600
     57 H57       -15.1545   -3.7100   58.2032 H       1  ZINC000470948647    0.1300
@<TRIPOS>BOND
     1     1     2    1
     2     1    31    1
     3     1    32    1
     4     1    33    1
     5     2    30   ar
     6     2     3   ar
     7     3     4   ar
     8     3    34    1
     9     4     5   ar
    10     4    35    1
    11     5     6    1
    12     5    28   ar
    13     6     7   am
    14     6    36    1
    15     7     8    2
    16     7     9    1
    17     9    10    1
    18     9    14    1
    19     9    11    1
    20    11    12    1
    21    11    37    1
    22    11    38    1
    23    12    13    1
    24    13    14    1
    25    13    39    1
    26    13    40    1
    27    14    15   am
    28    15    16    2
    29    15    17    1
    30    17    27    1
    31    17    18    2
    32    18    19    1
    33    19    20    1
    34    19    26    1
    35    20    25    1
    36    20    21    1
    37    20    41    1
    38    21    22    1
    39    21    42    1
    40    21    43    1
    41    22    23    1
    42    22    44    1
    43    22    45    1
    44    23    24    1
    45    23    46    1
    46    23    47    1
    47    24    25    1
    48    24    48    1
    49    24    49    1
    50    25    50    1
    51    25    51    1
    52    26    27    2
    53    26    52    1
    54    27    53    1
    55    28    29    1
    56    28    30   ar
    57    29    54    1
    58    29    55    1
    59    29    56    1
    60    30    57    1
@<TRIPOS>SUBSTRUCTURE
     1 ZINC000470948647        1 TEMP              0 ****  ****    0 ROOT


##########                                Name:    ZINC001707804910
##########                DOCK_Rotatable_Bonds:                   4
##########                         Heavy_Atoms:                  26
##########                    Molecular_Weight:             358.403
##########                DOCK_Rotatable_Bonds:                   4
##########                       Formal_Charge:          -0.0399996
##########                     HBond_Acceptors:                  10
##########                        HBond_Donors:                   0
##########                         Heavy_Atoms:                  26
##########                          Grid_Score:          -31.416458
##########                     Grid_vdw_energy:          -32.103127
##########                      Grid_es_energy:            0.686668
##########           Internal_energy_repulsive:            8.629194

@<TRIPOS>MOLECULE
ZINC001707804910
 48 51 1 0 0
SMALL
USER_CHARGES


@<TRIPOS>ATOM
      1 C1         -6.2404    7.2121   52.1530 C.3     1  ZINC001707804910   -0.0700
      2 C2         -6.9478    6.2368   51.2478 C.2     1  ZINC001707804910    0.0700
      3 N3         -8.0316    6.4795   50.5561 N.2     1  ZINC001707804910   -0.2800
      4 N4         -8.3672    5.3190   49.8469 N.pl3   1  ZINC001707804910   -0.3700
      5 C5         -9.5132    5.1591   48.9484 C.3     1  ZINC001707804910    0.0900
      6 C6         -7.4482    4.3743   50.1373 C.2     1  ZINC001707804910    0.0500
      7 C7         -7.4178    2.9682   49.5961 C.3     1  ZINC001707804910    0.1800
      8 N8         -6.7975    2.0791   50.5814 N.pl3   1  ZINC001707804910   -0.4600
      9 C9         -5.4640    1.8172   50.7330 C.2     1  ZINC001707804910    0.1900
     10 C10        -4.3412    2.3943   49.9099 C.3     1  ZINC001707804910   -0.0700
     11 N11        -5.3439    0.9769   51.7214 N.2     1  ZINC001707804910   -0.2800
     12 N12        -6.5019    0.6921   52.2010 N.2     1  ZINC001707804910   -0.3000
     13 C13        -7.4300    1.3449   51.5420 C.2     1  ZINC001707804910    0.3500
     14 N14        -8.7955    1.2919   51.7725 N.3     1  ZINC001707804910   -0.4600
     15 C15        -9.2347    2.4257   52.5987 C.3     1  ZINC001707804910    0.0200
     16 C16       -10.7538    2.3611   52.7783 C.3     1  ZINC001707804910    0.0700
     17 O17       -11.1073    1.1014   53.3558 O.3     1  ZINC001707804910   -0.3600
     18 C18       -10.6952   -0.0250   52.5769 C.3     1  ZINC001707804910    0.2000
     19 H19       -11.1796    0.0106   51.6010 H       1  ZINC001707804910    0.1000
     20 C20       -11.0845   -1.2966   53.2857 C.2     1  ZINC001707804910    0.1600
     21 N21       -11.3863   -2.4318   52.7224 N.2     1  ZINC001707804910   -0.2500
     22 N22       -11.6670   -3.2982   53.6313 N.2     1  ZINC001707804910   -0.2900
     23 C23       -11.5538   -2.7452   54.8053 C.2     1  ZINC001707804910    0.1700
     24 C24       -11.7944   -3.4151   56.1337 C.3     1  ZINC001707804910   -0.0600
     25 O25       -11.1783   -1.4692   54.6148 O.3     1  ZINC001707804910   -0.2200
     26 C26        -9.1756    0.0155   52.3951 C.3     1  ZINC001707804910    0.0400
     27 C27        -6.5559    4.9177   50.9973 C.2     1  ZINC001707804910   -0.2300
     28 H28        -5.4983    7.7674   51.5795 H       1  ZINC001707804910    0.0800
     29 H29        -6.9660    7.9064   52.5769 H       1  ZINC001707804910    0.0700
     30 H30        -5.7454    6.6680   52.9573 H       1  ZINC001707804910    0.0800
     31 H31        -9.2547    5.5361   47.9589 H       1  ZINC001707804910    0.0800
     32 H32        -9.7751    4.1033   48.8779 H       1  ZINC001707804910    0.0900
     33 H33       -10.3627    5.7188   49.3399 H       1  ZINC001707804910    0.0900
     34 H34        -8.4357    2.6342   49.3952 H       1  ZINC001707804910    0.1100
     35 H35        -6.8394    2.9468   48.6725 H       1  ZINC001707804910    0.1200
     36 H36        -4.0624    3.3696   50.3090 H       1  ZINC001707804910    0.0900
     37 H37        -3.4811    1.7261   49.9494 H       1  ZINC001707804910    0.1000
     38 H38        -4.6683    2.5048   48.8759 H       1  ZINC001707804910    0.0700
     39 H39        -8.7504    2.3747   53.5739 H       1  ZINC001707804910    0.0700
     40 H40        -8.9658    3.3604   52.1066 H       1  ZINC001707804910    0.0900
     41 H41       -11.0769    3.1670   53.4373 H       1  ZINC001707804910    0.1200
     42 H42       -11.2398    2.4661   51.8084 H       1  ZINC001707804910    0.0700
     43 H43       -10.8647   -3.8581   56.4909 H       1  ZINC001707804910    0.1000
     44 H44       -12.1457   -2.6769   56.8546 H       1  ZINC001707804910    0.1000
     45 H45       -12.5468   -4.1949   56.0163 H       1  ZINC001707804910    0.1100
     46 H46        -8.8636   -0.8092   51.7543 H       1  ZINC001707804910    0.1000
     47 H47        -8.6903   -0.0742   53.3670 H       1  ZINC001707804910    0.0800
     48 H48        -5.6965    4.4190   51.4205 H       1  ZINC001707804910    0.1500
@<TRIPOS>BOND
     1     1     2    1
     2     1    28    1
     3     1    29    1
     4     1    30    1
     5     2    27    1
     6     2     3    2
     7     3     4    1
     8     4     5    1
     9     4     6    1
    10     5    31    1
    11     5    32    1
    12     5    33    1
    13     6     7    1
    14     6    27    2
    15     7     8    1
    16     7    34    1
    17     7    35    1
    18     8    13    1
    19     8     9    1
    20     9    10    1
    21     9    11    2
    22    10    36    1
    23    10    37    1
    24    10    38    1
    25    11    12    1
    26    12    13    2
    27    13    14    1
    28    14    26    1
    29    14    15    1
    30    15    16    1
    31    15    39    1
    32    15    40    1
    33    16    17    1
    34    16    41    1
    35    16    42    1
    36    17    18    1
    37    18    19    1
    38    18    20    1
    39    18    26    1
    40    20    25    1
    41    20    21    2
    42    21    22    1
    43    22    23    2
    44    23    24    1
    45    23    25    1
    46    24    43    1
    47    24    44    1
    48    24    45    1
    49    26    46    1
    50    26    47    1
    51    27    48    1
@<TRIPOS>SUBSTRUCTURE
     1 ZINC001707804910        1 TEMP              0 ****  ****    0 ROOT


##########                                Name:    ZINC000623695407
##########                DOCK_Rotatable_Bonds:                  10
##########                         Heavy_Atoms:                  27
##########                    Molecular_Weight:             368.479
##########                DOCK_Rotatable_Bonds:                  10
##########                       Formal_Charge:           0.0299989
##########                     HBond_Acceptors:                   6
##########                        HBond_Donors:                   2
##########                         Heavy_Atoms:                  27
##########                          Grid_Score:          -31.403042
##########                     Grid_vdw_energy:          -29.078197
##########                      Grid_es_energy:           -2.324844
##########           Internal_energy_repulsive:           10.270407

@<TRIPOS>MOLECULE
ZINC000623695407
 55 57 1 0 0
SMALL
USER_CHARGES


@<TRIPOS>ATOM
      1 C1        -11.0230   -3.7291   57.6329 C.3     1  ZINC000623695407    0.0300
      2 O2        -10.7076   -3.8475   59.0216 O.3     1  ZINC000623695407   -0.3200
      3 C3        -10.5510   -2.6918   59.7194 C.ar    1  ZINC000623695407    0.1300
      4 C4         -9.2783   -2.2083   59.9862 C.ar    1  ZINC000623695407   -0.2100
      5 C5         -9.1218   -1.0331   60.6953 C.ar    1  ZINC000623695407   -0.0600
      6 C6        -10.2322   -0.3391   61.1393 C.ar    1  ZINC000623695407   -0.1100
      7 C7        -10.0586    0.9424   61.9131 C.3     1  ZINC000623695407    0.0600
      8 N8        -10.5291    2.0723   61.1008 N.3     1  ZINC000623695407   -0.4600
      9 C9        -10.2807    3.3548   61.7853 C.3     1  ZINC000623695407    0.0000
     10 C10        -9.8513    3.9317   60.4290 C.3     1  ZINC000623695407   -0.1300
     11 C11        -9.5128    2.4692   60.1085 C.3     1  ZINC000623695407    0.0100
     12 H12        -8.4981    2.1867   60.3892 H       1  ZINC000623695407    0.0900
     13 C13        -9.8655    2.0617   58.6765 C.3     1  ZINC000623695407    0.1600
     14 N14        -9.1567    2.9298   57.7330 N.am    1  ZINC000623695407   -0.7400
     15 C15        -7.8762    2.6657   57.4058 C.2     1  ZINC000623695407    0.7100
     16 O16        -7.3089    1.7079   57.8946 O.2     1  ZINC000623695407   -0.5900
     17 N17        -7.2247    3.4635   56.5365 N.am    1  ZINC000623695407   -0.7400
     18 C18        -5.8322    3.1774   56.1821 C.3     1  ZINC000623695407    0.1700
     19 H19        -5.5849    2.1571   56.4752 H       1  ZINC000623695407    0.0900
     20 C20        -5.6482    3.3329   54.6712 C.3     1  ZINC000623695407   -0.1600
     21 C21        -4.9092    4.1555   56.9117 C.3     1  ZINC000623695407   -0.0900
     22 C22        -3.4739    3.7572   56.6831 C.ar    1  ZINC000623695407   -0.0300
     23 C23        -2.7078    4.3881   55.7149 C.ar    1  ZINC000623695407   -0.1700
     24 C24        -1.3949    3.9959   55.5338 C.ar    1  ZINC000623695407    0.1000
     25 N25        -0.8708    3.0344   56.2683 N.ar    1  ZINC000623695407   -0.4900
     26 C26        -1.5694    2.4126   57.1979 C.ar    1  ZINC000623695407    0.1000
     27 C27        -2.8862    2.7550   57.4400 C.ar    1  ZINC000623695407   -0.1700
     28 C28       -11.5017   -0.8188   60.8743 C.ar    1  ZINC000623695407   -0.0700
     29 C29       -11.6636   -1.9907   60.1612 C.ar    1  ZINC000623695407   -0.1500
     30 H30       -11.1206   -4.7232   57.1964 H       1  ZINC000623695407    0.1000
     31 H31       -11.9625   -3.1883   57.5184 H       1  ZINC000623695407    0.0600
     32 H32       -10.2266   -3.1856   57.1245 H       1  ZINC000623695407    0.0600
     33 H33        -8.4107   -2.7504   59.6401 H       1  ZINC000623695407    0.1300
     34 H34        -8.1313   -0.6562   60.9032 H       1  ZINC000623695407    0.1200
     35 H35       -10.6379    0.8915   62.8350 H       1  ZINC000623695407    0.0600
     36 H36        -9.0046    1.0818   62.1534 H       1  ZINC000623695407    0.0700
     37 H37       -11.1838    3.8149   62.1865 H       1  ZINC000623695407    0.0900
     38 H38        -9.4711    3.3087   62.5136 H       1  ZINC000623695407    0.0700
     39 H39       -10.6711    4.3401   59.8380 H       1  ZINC000623695407    0.1000
     40 H40        -8.9840    4.5901   60.4786 H       1  ZINC000623695407    0.0800
     41 H41        -9.5694    1.0259   58.5101 H       1  ZINC000623695407    0.0700
     42 H42       -10.9404    2.1612   58.5248 H       1  ZINC000623695407    0.0700
     43 H43        -9.6090    3.6946   57.3439 H       1  ZINC000623695407    0.3900
     44 H44        -7.6777    4.2269   56.1455 H       1  ZINC000623695407    0.3900
     45 H45        -4.6121    3.1202   54.4077 H       1  ZINC000623695407    0.0700
     46 H46        -6.3058    2.6361   54.1515 H       1  ZINC000623695407    0.0700
     47 H47        -5.8955    4.3533   54.3782 H       1  ZINC000623695407    0.0600
     48 H48        -5.0720    5.1631   56.5289 H       1  ZINC000623695407    0.1000
     49 H49        -5.1269    4.1329   57.9795 H       1  ZINC000623695407    0.0800
     50 H50        -3.1316    5.1757   55.1097 H       1  ZINC000623695407    0.1300
     51 H51        -0.7915    4.4823   54.7816 H       1  ZINC000623695407    0.1500
     52 H52        -1.1059    1.6295   57.7797 H       1  ZINC000623695407    0.1600
     53 H53        -3.4533    2.2424   58.2030 H       1  ZINC000623695407    0.1400
     54 H54       -12.3675   -0.2747   61.2220 H       1  ZINC000623695407    0.1200
     55 H55       -12.6554   -2.3650   59.9544 H       1  ZINC000623695407    0.1300
@<TRIPOS>BOND
     1     1     2    1
     2     1    30    1
     3     1    31    1
     4     1    32    1
     5     2     3    1
     6     3    29   ar
     7     3     4   ar
     8     4     5   ar
     9     4    33    1
    10     5     6   ar
    11     5    34    1
    12     6     7    1
    13     6    28   ar
    14     7     8    1
    15     7    35    1
    16     7    36    1
    17     8    11    1
    18     8     9    1
    19     9    10    1
    20     9    37    1
    21     9    38    1
    22    10    11    1
    23    10    39    1
    24    10    40    1
    25    11    12    1
    26    11    13    1
    27    13    14    1
    28    13    41    1
    29    13    42    1
    30    14    15   am
    31    14    43    1
    32    15    16    2
    33    15    17   am
    34    17    18    1
    35    17    44    1
    36    18    19    1
    37    18    20    1
    38    18    21    1
    39    20    45    1
    40    20    46    1
    41    20    47    1
    42    21    22    1
    43    21    48    1
    44    21    49    1
    45    22    27   ar
    46    22    23   ar
    47    23    24   ar
    48    23    50    1
    49    24    25   ar
    50    24    51    1
    51    25    26   ar
    52    26    27   ar
    53    26    52    1
    54    27    53    1
    55    28    29   ar
    56    28    54    1
    57    29    55    1
@<TRIPOS>SUBSTRUCTURE
     1 ZINC000623695407        1 TEMP              0 ****  ****    0 ROOT


##########                                Name:    ZINC000981048968
##########                DOCK_Rotatable_Bonds:                   7
##########                         Heavy_Atoms:                  25
##########                    Molecular_Weight:             344.414
##########                DOCK_Rotatable_Bonds:                   7
##########                       Formal_Charge:                0.02
##########                     HBond_Acceptors:                   7
##########                        HBond_Donors:                   2
##########                         Heavy_Atoms:                  25
##########                          Grid_Score:          -31.389673
##########                     Grid_vdw_energy:          -30.771198
##########                      Grid_es_energy:           -0.618475
##########           Internal_energy_repulsive:            3.634767

@<TRIPOS>MOLECULE
ZINC000981048968
 49 52 1 0 0
SMALL
USER_CHARGES


@<TRIPOS>ATOM
      1 C1         -1.6361    3.6875   52.3159 C.3     1  ZINC000981048968   -0.0800
      2 C2         -2.8274    3.2146   51.5231 C.2     1  ZINC000981048968   -0.0100
      3 C3         -4.0877    3.1470   51.9785 C.2     1  ZINC000981048968   -0.1600
      4 C4         -4.8939    2.6336   50.8614 C.2     1  ZINC000981048968   -0.2300
      5 C5         -6.3455    2.3789   50.8536 C.2     1  ZINC000981048968    0.5900
      6 O6         -6.9536    2.3582   49.8006 O.2     1  ZINC000981048968   -0.5300
      7 N7         -6.9991    2.1690   52.0135 N.am    1  ZINC000981048968   -0.7300
      8 C8         -8.4424    1.9176   52.0059 C.3     1  ZINC000981048968    0.1500
      9 H9         -8.7317    1.4897   51.0460 H       1  ZINC000981048968    0.0900
     10 C10        -9.1905    3.2345   52.2234 C.3     1  ZINC000981048968   -0.1300
     11 C11       -10.6978    2.9720   52.2156 C.3     1  ZINC000981048968   -0.1200
     12 C12       -11.0510    1.9933   53.3374 C.3     1  ZINC000981048968   -0.1100
     13 C13       -10.3029    0.6766   53.1198 C.3     1  ZINC000981048968    0.1000
     14 H14       -10.5921    0.2487   52.1599 H       1  ZINC000981048968    0.0500
     15 N15       -10.6419   -0.2630   54.1969 N.3     1  ZINC000981048968   -0.6800
     16 C16       -11.0864   -1.5522   53.6505 C.3     1  ZINC000981048968    0.1500
     17 C17       -11.5937   -2.4242   54.7699 C.2     1  ZINC000981048968    0.1800
     18 N18       -10.8675   -3.1251   55.5883 N.2     1  ZINC000981048968   -0.3800
     19 O19       -11.5751   -3.7173   56.3757 O.3     1  ZINC000981048968    0.0800
     20 C20       -12.8589   -3.4420   56.1268 C.2     1  ZINC000981048968    0.2100
     21 C21       -14.0528   -3.9751   56.8761 C.3     1  ZINC000981048968   -0.0800
     22 C22       -15.4201   -3.8613   56.1991 C.3     1  ZINC000981048968   -0.1600
     23 C23       -14.7365   -5.2250   56.3182 C.3     1  ZINC000981048968   -0.1500
     24 N24       -12.8811   -2.6153   55.1091 N.2     1  ZINC000981048968   -0.4600
     25 C25        -8.7956    0.9391   53.1277 C.3     1  ZINC000981048968   -0.1300
     26 C26        -4.0178    2.4431   49.8332 C.2     1  ZINC000981048968    0.0200
     27 O27        -2.7979    2.7992   50.2472 O.3     1  ZINC000981048968   -0.1700
     28 H28        -0.7431    3.6403   51.6927 H       1  ZINC000981048968    0.0800
     29 H29        -1.7997    4.7156   52.6390 H       1  ZINC000981048968    0.0900
     30 H30        -1.5040    3.0488   53.1892 H       1  ZINC000981048968    0.0900
     31 H31        -4.4383    3.4147   52.9643 H       1  ZINC000981048968    0.1600
     32 H32        -6.5139    2.1843   52.8532 H       1  ZINC000981048968    0.4000
     33 H33        -8.9013    3.6623   53.1834 H       1  ZINC000981048968    0.0700
     34 H34        -8.9389    3.9316   51.4242 H       1  ZINC000981048968    0.0700
     35 H35       -11.2308    3.9100   52.3705 H       1  ZINC000981048968    0.0700
     36 H36       -10.9871    2.5440   51.2557 H       1  ZINC000981048968    0.0600
     37 H37       -10.7617    2.4212   54.2972 H       1  ZINC000981048968    0.0700
     38 H38       -12.1248    1.8063   53.3317 H       1  ZINC000981048968    0.0700
     39 H39        -9.8638   -0.3864   54.8273 H       1  ZINC000981048968    0.3500
     40 H40       -11.8863   -1.3846   52.9293 H       1  ZINC000981048968    0.1100
     41 H41       -10.2492   -2.0454   53.1565 H       1  ZINC000981048968    0.0600
     42 H42       -14.0164   -3.8625   57.9597 H       1  ZINC000981048968    0.1500
     43 H43       -16.2837   -3.6738   56.8373 H       1  ZINC000981048968    0.1200
     44 H44       -15.4562   -3.4009   55.2118 H       1  ZINC000981048968    0.1100
     45 H45       -14.3228   -5.6616   55.4093 H       1  ZINC000981048968    0.1000
     46 H46       -15.1503   -5.9345   57.0348 H       1  ZINC000981048968    0.1200
     47 H47        -8.2626    0.0010   52.9727 H       1  ZINC000981048968    0.0700
     48 H48        -8.5063    1.3670   54.0876 H       1  ZINC000981048968    0.0800
     49 H49        -4.2680    2.0712   48.8506 H       1  ZINC000981048968    0.2100
@<TRIPOS>BOND
     1     1     2    1
     2     1    28    1
     3     1    29    1
     4     1    30    1
     5     2    27    1
     6     2     3    2
     7     3     4    1
     8     3    31    1
     9     4     5    1
    10     4    26    2
    11     5     6    2
    12     5     7   am
    13     7     8    1
    14     7    32    1
    15     8     9    1
    16     8    25    1
    17     8    10    1
    18    10    11    1
    19    10    33    1
    20    10    34    1
    21    11    12    1
    22    11    35    1
    23    11    36    1
    24    12    13    1
    25    12    37    1
    26    12    38    1
    27    13    14    1
    28    13    15    1
    29    13    25    1
    30    15    16    1
    31    15    39    1
    32    16    17    1
    33    16    40    1
    34    16    41    1
    35    17    24    1
    36    17    18    2
    37    18    19    1
    38    19    20    1
    39    20    21    1
    40    20    24    2
    41    21    23    1
    42    21    22    1
    43    21    42    1
    44    22    23    1
    45    22    43    1
    46    22    44    1
    47    23    45    1
    48    23    46    1
    49    25    47    1
    50    25    48    1
    51    26    27    1
    52    26    49    1
@<TRIPOS>SUBSTRUCTURE
     1 ZINC000981048968        1 TEMP              0 ****  ****    0 ROOT


##########                                Name:    ZINC000151991096
##########                DOCK_Rotatable_Bonds:                   8
##########                         Heavy_Atoms:                  27
##########                    Molecular_Weight:             364.444
##########                DOCK_Rotatable_Bonds:                   8
##########                       Formal_Charge:          -0.0200004
##########                     HBond_Acceptors:                   5
##########                        HBond_Donors:                   1
##########                         Heavy_Atoms:                  27
##########                          Grid_Score:          -31.381950
##########                     Grid_vdw_energy:          -30.087017
##########                      Grid_es_energy:           -1.294933
##########           Internal_energy_repulsive:           19.170626

@<TRIPOS>MOLECULE
ZINC000151991096
 51 53 1 0 0
SMALL
USER_CHARGES


@<TRIPOS>ATOM
      1 C1         -8.3166    3.9420   49.9230 C.3     1  ZINC000151991096   -0.1500
      2 C2         -7.4425    3.7446   51.1632 C.3     1  ZINC000151991096   -0.1300
      3 C3         -7.3237    2.2506   51.4708 C.3     1  ZINC000151991096    0.1400
      4 H4         -8.1606    1.7187   51.0181 H       1  ZINC000151991096    0.1000
      5 N5         -7.3435    2.0476   52.9215 N.am    1  ZINC000151991096   -0.7200
      6 C6         -8.5125    2.0842   53.5913 C.2     1  ZINC000151991096    0.5600
      7 O7         -9.5505    2.2873   52.9916 O.2     1  ZINC000151991096   -0.5300
      8 C8         -8.5325    1.8780   55.0527 C.ar    1  ZINC000151991096   -0.1700
      9 C9         -9.5507    1.1224   55.6396 C.ar    1  ZINC000151991096   -0.0500
     10 C10        -9.5656    0.9319   57.0033 C.ar    1  ZINC000151991096   -0.1600
     11 C11        -8.5694    1.4902   57.7958 C.ar    1  ZINC000151991096    0.1600
     12 O12        -8.5873    1.2999   59.1394 O.3     1  ZINC000151991096   -0.3000
     13 C13        -8.8035   -0.0345   59.6028 C.3     1  ZINC000151991096    0.0900
     14 C14       -10.1168   -0.1042   60.3385 C.ar    1  ZINC000151991096   -0.0500
     15 C15       -10.3952    0.7990   61.3431 C.ar    1  ZINC000151991096   -0.1000
     16 C16       -11.6007    0.7364   62.0197 C.ar    1  ZINC000151991096   -0.0900
     17 C17       -12.5342   -0.2314   61.6946 C.ar    1  ZINC000151991096   -0.1200
     18 C18       -12.2688   -1.1413   60.6920 C.ar    1  ZINC000151991096   -0.0700
     19 C19       -11.0572   -1.0800   60.0011 C.ar    1  ZINC000151991096   -0.0200
     20 C20       -10.7749   -2.0211   58.9592 C.1     1  ZINC000151991096    0.2400
     21 N21       -10.5510   -2.7676   58.1328 N.1     1  ZINC000151991096   -0.4000
     22 C22        -7.5548    2.2426   57.2158 C.ar    1  ZINC000151991096   -0.2200
     23 C23        -7.5300    2.4332   55.8522 C.ar    1  ZINC000151991096   -0.0100
     24 C24        -6.0097    1.7150   50.8987 C.3     1  ZINC000151991096    0.0700
     25 H25        -6.0600    0.6297   50.8104 H       1  ZINC000151991096    0.1000
     26 C26        -4.8368    2.1115   51.8209 C.3     1  ZINC000151991096   -0.1500
     27 C27        -3.7190    2.4607   50.8008 C.3     1  ZINC000151991096   -0.1600
     28 C28        -4.5540    3.0688   49.6460 C.3     1  ZINC000151991096    0.0500
     29 O29        -5.7670    2.2964   49.6123 O.3     1  ZINC000151991096   -0.3700
     30 H30        -9.3083    3.5292   50.1080 H       1  ZINC000151991096    0.0500
     31 H31        -8.4012    5.0063   49.7039 H       1  ZINC000151991096    0.0500
     32 H32        -7.8630    3.4311   49.0737 H       1  ZINC000151991096    0.0600
     33 H33        -6.4508    4.1573   50.9781 H       1  ZINC000151991096    0.0700
     34 H34        -7.8961    4.2555   52.0125 H       1  ZINC000151991096    0.0700
     35 H35        -6.5152    1.8868   53.4001 H       1  ZINC000151991096    0.4000
     36 H36       -10.3252    0.6885   55.0246 H       1  ZINC000151991096    0.1300
     37 H37       -10.3525    0.3482   57.4579 H       1  ZINC000151991096    0.1400
     38 H38        -8.8272   -0.7153   58.7519 H       1  ZINC000151991096    0.0800
     39 H39        -7.9947   -0.3211   60.2751 H       1  ZINC000151991096    0.0800
     40 H40        -9.6705    1.5567   61.6023 H       1  ZINC000151991096    0.1400
     41 H41       -11.8135    1.4462   62.8054 H       1  ZINC000151991096    0.1400
     42 H42       -13.4727   -0.2751   62.2273 H       1  ZINC000151991096    0.1400
     43 H43       -12.9983   -1.8966   60.4396 H       1  ZINC000151991096    0.1400
     44 H44        -6.7828    2.6751   57.8350 H       1  ZINC000151991096    0.1300
     45 H45        -6.7411    3.0177   55.4023 H       1  ZINC000151991096    0.1400
     46 H46        -5.0955    2.9807   52.4256 H       1  ZINC000151991096    0.0800
     47 H47        -4.5387    1.2738   52.4514 H       1  ZINC000151991096    0.0900
     48 H48        -3.0261    3.1942   51.2130 H       1  ZINC000151991096    0.0800
     49 H49        -3.1912    1.5646   50.4743 H       1  ZINC000151991096    0.0800
     50 H50        -4.7770    4.1158   49.8510 H       1  ZINC000151991096    0.0600
     51 H51        -4.0193    2.9730   48.7011 H       1  ZINC000151991096    0.0900
@<TRIPOS>BOND
     1     1     2    1
     2     1    30    1
     3     1    31    1
     4     1    32    1
     5     2     3    1
     6     2    33    1
     7     2    34    1
     8     3     4    1
     9     3     5    1
    10     3    24    1
    11     5     6   am
    12     5    35    1
    13     6     7    2
    14     6     8    1
    15     8    23   ar
    16     8     9   ar
    17     9    10   ar
    18     9    36    1
    19    10    11   ar
    20    10    37    1
    21    11    12    1
    22    11    22   ar
    23    12    13    1
    24    13    14    1
    25    13    38    1
    26    13    39    1
    27    14    19   ar
    28    14    15   ar
    29    15    16   ar
    30    15    40    1
    31    16    17   ar
    32    16    41    1
    33    17    18   ar
    34    17    42    1
    35    18    19   ar
    36    18    43    1
    37    19    20    1
    38    20    21    3
    39    22    23   ar
    40    22    44    1
    41    23    45    1
    42    24    25    1
    43    24    29    1
    44    24    26    1
    45    26    27    1
    46    26    46    1
    47    26    47    1
    48    27    28    1
    49    27    48    1
    50    27    49    1
    51    28    29    1
    52    28    50    1
    53    28    51    1
@<TRIPOS>SUBSTRUCTURE
     1 ZINC000151991096        1 TEMP              0 ****  ****    0 ROOT


##########                                Name:    ZINC001341052241
##########                DOCK_Rotatable_Bonds:                   7
##########                         Heavy_Atoms:                  24
##########                    Molecular_Weight:             336.478
##########                DOCK_Rotatable_Bonds:                   7
##########                       Formal_Charge:         5.96046e-08
##########                     HBond_Acceptors:                   6
##########                        HBond_Donors:                   0
##########                         Heavy_Atoms:                  24
##########                          Grid_Score:          -31.370533
##########                     Grid_vdw_energy:          -30.821829
##########                      Grid_es_energy:           -0.548704
##########           Internal_energy_repulsive:           11.602408

@<TRIPOS>MOLECULE
ZINC001341052241
 56 58 1 0 0
SMALL
USER_CHARGES


@<TRIPOS>ATOM
      1 C1         -3.9932    4.3608   53.5439 C.3     1  ZINC001341052241   -0.1700
      2 C2         -3.6063    2.9609   53.0629 C.3     1  ZINC001341052241    0.1100
      3 N3         -3.9323    2.8257   51.6411 N.pl3   1  ZINC001341052241   -0.4500
      4 C4         -3.0982    3.0399   50.5789 C.2     1  ZINC001341052241    0.1800
      5 C5         -1.6535    3.4630   50.6487 C.3     1  ZINC001341052241    0.1500
      6 O6         -0.8135    2.3214   50.4674 O.3     1  ZINC001341052241   -0.3700
      7 C7          0.5823    2.6008   50.5936 C.3     1  ZINC001341052241    0.0900
      8 C8          1.3813    1.3134   50.3816 C.3     1  ZINC001341052241   -0.1400
      9 C9          2.8757    1.6126   50.5166 C.3     1  ZINC001341052241   -0.1200
     10 C10         3.1608    2.1654   51.9145 C.3     1  ZINC001341052241   -0.1200
     11 C11         2.3617    3.4528   52.1266 C.3     1  ZINC001341052241   -0.1200
     12 C12         0.8673    3.1536   51.9915 C.3     1  ZINC001341052241   -0.1200
     13 N13        -3.7838    2.8095   49.4952 N.2     1  ZINC001341052241   -0.2600
     14 N14        -4.9834    2.4615   49.7981 N.2     1  ZINC001341052241   -0.3100
     15 C15        -5.1314    2.4605   51.1020 C.2     1  ZINC001341052241    0.3500
     16 N16        -6.2856    2.1427   51.7998 N.3     1  ZINC001341052241   -0.4600
     17 C17        -7.4454    2.8578   51.2520 C.3     1  ZINC001341052241    0.0700
     18 C18        -8.6695    2.5974   52.1329 C.3     1  ZINC001341052241   -0.1100
     19 C19        -8.9489    1.0927   52.1782 C.3     1  ZINC001341052241   -0.0900
     20 C20       -10.1346    0.8205   53.1062 C.3     1  ZINC001341052241    0.0700
     21 O21       -11.1249    0.0658   52.4049 O.3     1  ZINC001341052241   -0.3900
     22 C22       -10.8569   -1.3368   52.3517 C.3     1  ZINC001341052241    0.0300
     23 C23        -7.7086    0.3669   52.7066 C.3     1  ZINC001341052241   -0.1100
     24 C24        -6.5124    0.6918   51.8091 C.3     1  ZINC001341052241    0.0700
     25 H25        -3.4492    5.1072   52.9652 H       1  ZINC001341052241    0.0600
     26 H26        -5.0650    4.5077   53.4102 H       1  ZINC001341052241    0.0700
     27 H27        -3.7412    4.4649   54.5994 H       1  ZINC001341052241    0.0800
     28 H28        -4.1580    2.2148   53.6347 H       1  ZINC001341052241    0.0900
     29 H29        -2.5363    2.8103   53.2063 H       1  ZINC001341052241    0.1000
     30 H30        -1.4501    4.1920   49.8643 H       1  ZINC001341052241    0.0900
     31 H31        -1.4528    3.9110   51.6220 H       1  ZINC001341052241    0.0700
     32 H32         0.8745    3.3374   49.8451 H       1  ZINC001341052241    0.0600
     33 H33         1.0891    0.5769   51.1300 H       1  ZINC001341052241    0.0700
     34 H34         1.1783    0.9197   49.3857 H       1  ZINC001341052241    0.0700
     35 H35         3.1680    2.3491   49.7681 H       1  ZINC001341052241    0.0600
     36 H36         3.4450    0.6954   50.3656 H       1  ZINC001341052241    0.0700
     37 H37         4.2254    2.3785   52.0108 H       1  ZINC001341052241    0.0600
     38 H38         2.8685    1.4289   52.6631 H       1  ZINC001341052241    0.0600
     39 H39         2.6540    4.1893   51.3781 H       1  ZINC001341052241    0.0600
     40 H40         2.5648    3.8465   53.1225 H       1  ZINC001341052241    0.0700
     41 H41         0.2980    4.0708   52.1426 H       1  ZINC001341052241    0.0700
     42 H42         0.5751    2.4171   52.7401 H       1  ZINC001341052241    0.0700
     43 H43        -7.6447    2.5053   50.2400 H       1  ZINC001341052241    0.0600
     44 H44        -7.2352    3.9270   51.2293 H       1  ZINC001341052241    0.0800
     45 H45        -9.5337    3.1157   51.7175 H       1  ZINC001341052241    0.0800
     46 H46        -8.4761    2.9622   53.1418 H       1  ZINC001341052241    0.0800
     47 H47        -9.1818    0.7351   51.1752 H       1  ZINC001341052241    0.0800
     48 H48       -10.5641    1.7672   53.4340 H       1  ZINC001341052241    0.0500
     49 H49        -9.7946    0.2558   53.9742 H       1  ZINC001341052241    0.0500
     50 H50        -9.9060   -1.5062   51.8467 H       1  ZINC001341052241    0.0400
     51 H51       -11.6542   -1.8385   51.8031 H       1  ZINC001341052241    0.0900
     52 H52       -10.8064   -1.7357   53.3649 H       1  ZINC001341052241    0.0400
     53 H53        -7.5001    0.6965   53.7245 H       1  ZINC001341052241    0.0700
     54 H54        -7.8863   -0.7085   52.7010 H       1  ZINC001341052241    0.0800
     55 H55        -6.7160    0.3495   50.7945 H       1  ZINC001341052241    0.0600
     56 H56        -5.6244    0.1879   52.1909 H       1  ZINC001341052241    0.0800
@<TRIPOS>BOND
     1     1     2    1
     2     1    25    1
     3     1    26    1
     4     1    27    1
     5     2     3    1
     6     2    28    1
     7     2    29    1
     8     3    15    1
     9     3     4    1
    10     4     5    1
    11     4    13    2
    12     5     6    1
    13     5    30    1
    14     5    31    1
    15     6     7    1
    16     7    12    1
    17     7     8    1
    18     7    32    1
    19     8     9    1
    20     8    33    1
    21     8    34    1
    22     9    10    1
    23     9    35    1
    24     9    36    1
    25    10    11    1
    26    10    37    1
    27    10    38    1
    28    11    12    1
    29    11    39    1
    30    11    40    1
    31    12    41    1
    32    12    42    1
    33    13    14    1
    34    14    15    2
    35    15    16    1
    36    16    24    1
    37    16    17    1
    38    17    18    1
    39    17    43    1
    40    17    44    1
    41    18    19    1
    42    18    45    1
    43    18    46    1
    44    19    20    1
    45    19    23    1
    46    19    47    1
    47    20    21    1
    48    20    48    1
    49    20    49    1
    50    21    22    1
    51    22    50    1
    52    22    51    1
    53    22    52    1
    54    23    24    1
    55    23    53    1
    56    23    54    1
    57    24    55    1
    58    24    56    1
@<TRIPOS>SUBSTRUCTURE
     1 ZINC001341052241        1 TEMP              0 ****  ****    0 ROOT


##########                                Name:    ZINC000991934963
##########                DOCK_Rotatable_Bonds:                   8
##########                         Heavy_Atoms:                  27
##########                    Molecular_Weight:             370.495
##########                DOCK_Rotatable_Bonds:                   8
##########                       Formal_Charge:          -0.0499997
##########                     HBond_Acceptors:                   6
##########                        HBond_Donors:                   1
##########                         Heavy_Atoms:                  27
##########                          Grid_Score:          -31.337494
##########                     Grid_vdw_energy:          -31.242250
##########                      Grid_es_energy:           -0.095244
##########           Internal_energy_repulsive:           12.853107

@<TRIPOS>MOLECULE
ZINC000991934963
 57 61 1 0 0
SMALL
USER_CHARGES


@<TRIPOS>ATOM
      1 C1         -8.6787    1.5261   59.3811 C.3     1  ZINC000991934963    0.0400
      2 O2         -8.9158    0.3242   60.1169 O.3     1  ZINC000991934963   -0.2900
      3 C3         -9.7966   -0.5578   59.5866 C.ar    1  ZINC000991934963    0.5000
      4 N4         -9.9560   -1.7372   60.1646 N.ar    1  ZINC000991934963   -0.5700
      5 C5        -10.8079   -2.6221   59.6728 C.ar    1  ZINC000991934963    0.1900
      6 C6        -11.5368   -2.3005   58.5391 C.ar    1  ZINC000991934963   -0.2700
      7 C7        -11.3445   -1.0561   57.9596 C.ar    1  ZINC000991934963    0.2200
      8 C8        -12.1147   -0.6619   56.7257 C.3     1  ZINC000991934963    0.1000
      9 N9        -11.2006   -0.0483   55.7531 N.3     1  ZINC000991934963   -0.4900
     10 C10       -11.2395    1.4453   55.8484 C.3     1  ZINC000991934963    0.0400
     11 C11       -11.5042    1.9754   54.4042 C.3     1  ZINC000991934963   -0.1400
     12 C12       -10.9889    0.8117   53.5599 C.3     1  ZINC000991934963    0.1700
     13 N13        -9.5261    0.7812   53.4868 N.am    1  ZINC000991934963   -0.7000
     14 C14        -8.8656    1.7355   52.8015 C.2     1  ZINC000991934963    0.5200
     15 O15        -9.4823    2.6186   52.2441 O.2     1  ZINC000991934963   -0.5300
     16 C16        -7.3607    1.7051   52.7277 C.3     1  ZINC000991934963   -0.1100
     17 C17        -6.8953    2.4688   51.4863 C.3     1  ZINC000991934963   -0.1300
     18 H18        -6.9159    3.5557   51.5678 H       1  ZINC000991934963    0.1200
     19 C19        -7.2120    1.8567   50.1203 C.3     1  ZINC000991934963   -0.1700
     20 C20        -5.7762    1.8441   50.6508 C.3     1  ZINC000991934963   -0.1200
     21 H21        -5.3716    0.8889   50.9853 H       1  ZINC000991934963    0.1000
     22 C22        -4.7716    2.7922   49.9928 C.3     1  ZINC000991934963   -0.1200
     23 C23        -4.2459    3.9581   50.8326 C.3     1  ZINC000991934963   -0.1800
     24 C24        -3.3338    2.7714   50.5153 C.3     1  ZINC000991934963   -0.1800
     25 C25       -11.6537    0.4950   52.2245 C.3     1  ZINC000991934963   -0.1200
     26 C26       -11.4723   -1.0512   52.1179 C.3     1  ZINC000991934963   -0.1200
     27 C27       -11.3468   -1.5682   53.5832 C.3     1  ZINC000991934963   -0.1000
     28 C28       -11.5912   -0.3583   54.4200 C.3     1  ZINC000991934963    0.0500
     29 H29       -12.6653   -0.1769   54.3791 H       1  ZINC000991934963    0.0400
     30 N30       -10.4805   -0.2168   58.5063 N.ar    1  ZINC000991934963   -0.5000
     31 H31        -9.6136    2.0757   59.2718 H       1  ZINC000991934963    0.0600
     32 H32        -7.9553    2.1423   59.9151 H       1  ZINC000991934963    0.1100
     33 H33        -8.2862    1.2771   58.3951 H       1  ZINC000991934963    0.0600
     34 H34       -10.9333   -3.5834   60.1489 H       1  ZINC000991934963    0.1700
     35 H35       -12.2388   -3.0039   58.1161 H       1  ZINC000991934963    0.1500
     36 H36       -12.5730   -1.5474   56.2851 H       1  ZINC000991934963    0.1000
     37 H37       -12.8917    0.0533   56.9953 H       1  ZINC000991934963    0.0600
     38 H38       -12.0446    1.7565   56.5141 H       1  ZINC000991934963    0.0600
     39 H39       -10.2844    1.8214   56.2153 H       1  ZINC000991934963    0.0800
     40 H40       -12.5685    2.1401   54.2363 H       1  ZINC000991934963    0.0800
     41 H41       -10.9335    2.8834   54.2095 H       1  ZINC000991934963    0.0900
     42 H42        -9.0328    0.0742   53.9315 H       1  ZINC000991934963    0.4000
     43 H43        -6.9438    2.1730   53.6196 H       1  ZINC000991934963    0.1000
     44 H44        -7.0206    0.6714   52.6670 H       1  ZINC000991934963    0.0900
     45 H45        -7.7518    0.9099   50.1061 H       1  ZINC000991934963    0.0900
     46 H46        -7.4406    2.5408   49.3031 H       1  ZINC000991934963    0.1000
     47 H47        -4.9172    2.9650   48.9264 H       1  ZINC000991934963    0.1000
     48 H48        -4.0456    4.8983   50.3187 H       1  ZINC000991934963    0.0900
     49 H49        -4.6157    4.0497   51.8538 H       1  ZINC000991934963    0.0900
     50 H50        -3.1035    2.0823   51.3278 H       1  ZINC000991934963    0.0900
     51 H51        -2.5333    2.9309   49.7928 H       1  ZINC000991934963    0.0900
     52 H52       -12.7106    0.7605   52.2453 H       1  ZINC000991934963    0.0800
     53 H53       -11.1417    1.0024   51.4068 H       1  ZINC000991934963    0.0800
     54 H54       -12.3406   -1.4991   51.6346 H       1  ZINC000991934963    0.0700
     55 H55       -10.5670   -1.2857   51.5579 H       1  ZINC000991934963    0.0700
     56 H56       -12.1000   -2.3299   53.7848 H       1  ZINC000991934963    0.0700
     57 H57       -10.3467   -1.9618   53.7646 H       1  ZINC000991934963    0.0700
@<TRIPOS>BOND
     1     1     2    1
     2     1    31    1
     3     1    32    1
     4     1    33    1
     5     2     3    1
     6     3    30   ar
     7     3     4   ar
     8     4     5   ar
     9     5     6   ar
    10     5    34    1
    11     6     7   ar
    12     6    35    1
    13     7     8    1
    14     7    30   ar
    15     8     9    1
    16     8    36    1
    17     8    37    1
    18     9    28    1
    19     9    10    1
    20    10    11    1
    21    10    38    1
    22    10    39    1
    23    11    12    1
    24    11    40    1
    25    11    41    1
    26    12    28    1
    27    12    13    1
    28    12    25    1
    29    13    14   am
    30    13    42    1
    31    14    15    2
    32    14    16    1
    33    16    17    1
    34    16    43    1
    35    16    44    1
    36    17    18    1
    37    17    20    1
    38    17    19    1
    39    19    20    1
    40    19    45    1
    41    19    46    1
    42    20    21    1
    43    20    22    1
    44    22    24    1
    45    22    23    1
    46    22    47    1
    47    23    24    1
    48    23    48    1
    49    23    49    1
    50    24    50    1
    51    24    51    1
    52    25    26    1
    53    25    52    1
    54    25    53    1
    55    26    27    1
    56    26    54    1
    57    26    55    1
    58    27    28    1
    59    27    56    1
    60    27    57    1
    61    28    29    1
@<TRIPOS>SUBSTRUCTURE
     1 ZINC000991934963        1 TEMP              0 ****  ****    0 ROOT


##########                                Name:    ZINC001077846158
##########                DOCK_Rotatable_Bonds:                   7
##########                         Heavy_Atoms:                  24
##########                    Molecular_Weight:             350.442
##########                DOCK_Rotatable_Bonds:                   7
##########                       Formal_Charge:          -0.0600002
##########                     HBond_Acceptors:                   8
##########                        HBond_Donors:                   2
##########                         Heavy_Atoms:                  24
##########                          Grid_Score:          -31.316359
##########                     Grid_vdw_energy:          -33.199726
##########                      Grid_es_energy:            1.883367
##########           Internal_energy_repulsive:            8.482478

@<TRIPOS>MOLECULE
ZINC001077846158
 46 48 1 0 0
SMALL
USER_CHARGES


@<TRIPOS>ATOM
      1 C1        -15.6323   -3.3362   59.0776 C.3     1  ZINC001077846158   -0.0700
      2 C2        -14.8815   -4.0392   57.9761 C.2     1  ZINC001077846158    0.0100
      3 C3        -13.8521   -3.5382   57.2735 C.2     1  ZINC001077846158   -0.0500
      4 C4        -13.2348   -2.1735   57.4394 C.3     1  ZINC001077846158    0.1300
      5 N5        -12.4374   -2.1435   58.6728 N.3     1  ZINC001077846158   -0.5100
      6 C6        -11.2150   -2.9762   58.5366 C.3     1  ZINC001077846158    0.0000
      7 C7        -10.2850   -2.4247   59.6466 C.3     1  ZINC001077846158    0.1000
      8 H8        -10.5480   -2.8482   60.6158 H       1  ZINC001077846158    0.0800
      9 O9         -8.9154   -2.6890   59.3362 O.3     1  ZINC001077846158   -0.5600
     10 C10       -10.5736   -0.9063   59.6165 C.3     1  ZINC001077846158    0.1400
     11 H11        -9.8230   -0.3903   59.0178 H       1  ZINC001077846158    0.1100
     12 N12       -10.5963   -0.3659   60.9780 N.am    1  ZINC001077846158   -0.7000
     13 C13        -9.4522   -0.2692   61.6838 C.2     1  ZINC001077846158    0.6000
     14 O14        -8.4010   -0.6316   61.1908 O.2     1  ZINC001077846158   -0.5300
     15 C15        -9.4747    0.2756   63.0518 C.2     1  ZINC001077846158    0.0100
     16 C16       -10.5903    0.7735   63.6309 C.2     1  ZINC001077846158   -0.2300
     17 S17       -10.2036    1.3016   65.2100 S.3     1  ZINC001077846158    0.2300
     18 C18        -8.5757    0.8274   65.0063 C.2     1  ZINC001077846158    0.0300
     19 C19        -7.5006    0.9779   66.0516 C.3     1  ZINC001077846158   -0.0200
     20 C20        -7.8065    2.1955   66.9261 C.3     1  ZINC001077846158   -0.1500
     21 C21        -7.4576   -0.2785   66.9235 C.3     1  ZINC001077846158   -0.1500
     22 N22        -8.3960    0.3188   63.8384 N.2     1  ZINC001077846158   -0.4500
     23 C23       -11.9618   -0.7735   58.9634 C.3     1  ZINC001077846158    0.0300
     24 O24       -13.4750   -4.4856   56.3926 O.3     1  ZINC001077846158   -0.2100
     25 C25       -14.2737   -5.5469   56.5670 C.2     1  ZINC001077846158    0.1800
     26 N26       -15.1176   -5.2833   57.5235 N.2     1  ZINC001077846158   -0.4900
     27 H27       -15.1528   -3.5439   60.0341 H       1  ZINC001077846158    0.0800
     28 H28       -15.6257   -2.2619   58.8935 H       1  ZINC001077846158    0.0700
     29 H29       -16.6615   -3.6944   59.1018 H       1  ZINC001077846158    0.0700
     30 H30       -12.5918   -1.9593   56.5858 H       1  ZINC001077846158    0.0600
     31 H31       -14.0230   -1.4230   57.4981 H       1  ZINC001077846158    0.1100
     32 H32       -11.4437   -4.0271   58.7134 H       1  ZINC001077846158    0.0900
     33 H33       -10.7640   -2.8395   57.5538 H       1  ZINC001077846158    0.0600
     34 H34        -8.2878   -2.2858   59.9515 H       1  ZINC001077846158    0.3900
     35 H35       -11.4347   -0.0780   61.3716 H       1  ZINC001077846158    0.4100
     36 H36       -11.5660    0.8287   63.1711 H       1  ZINC001077846158    0.1900
     37 H37        -6.5357    1.1145   65.5632 H       1  ZINC001077846158    0.1000
     38 H38        -7.8371    3.0906   66.3049 H       1  ZINC001077846158    0.0600
     39 H39        -8.7714    2.0590   67.4144 H       1  ZINC001077846158    0.0600
     40 H40        -7.0288    2.3043   67.6821 H       1  ZINC001077846158    0.0700
     41 H41        -7.2397   -1.1459   66.3005 H       1  ZINC001077846158    0.0600
     42 H42        -6.6800   -0.1696   67.6796 H       1  ZINC001077846158    0.0700
     43 H43        -8.4226   -0.4151   67.4118 H       1  ZINC001077846158    0.0600
     44 H44       -11.8837   -0.2035   58.0376 H       1  ZINC001077846158    0.0600
     45 H45       -12.6495   -0.2796   59.6498 H       1  ZINC001077846158    0.0900
     46 H46       -14.2233   -6.4705   56.0094 H       1  ZINC001077846158    0.2500
@<TRIPOS>BOND
     1     1     2    1
     2     1    27    1
     3     1    28    1
     4     1    29    1
     5     2    26    1
     6     2     3    2
     7     3     4    1
     8     3    24    1
     9     4     5    1
    10     4    30    1
    11     4    31    1
    12     5    23    1
    13     5     6    1
    14     6     7    1
    15     6    32    1
    16     6    33    1
    17     7     8    1
    18     7     9    1
    19     7    10    1
    20     9    34    1
    21    10    11    1
    22    10    12    1
    23    10    23    1
    24    12    13   am
    25    12    35    1
    26    13    14    2
    27    13    15    1
    28    15    22    1
    29    15    16    2
    30    16    17    1
    31    16    36    1
    32    17    18    1
    33    18    19    1
    34    18    22    2
    35    19    20    1
    36    19    21    1
    37    19    37    1
    38    20    38    1
    39    20    39    1
    40    20    40    1
    41    21    41    1
    42    21    42    1
    43    21    43    1
    44    23    44    1
    45    23    45    1
    46    24    25    1
    47    25    26    2
    48    25    46    1
@<TRIPOS>SUBSTRUCTURE
     1 ZINC001077846158        1 TEMP              0 ****  ****    0 ROOT


##########                                Name:    ZINC000409064708
##########                DOCK_Rotatable_Bonds:                   8
##########                         Heavy_Atoms:                  29
##########                    Molecular_Weight:             415.442
##########                DOCK_Rotatable_Bonds:                   8
##########                       Formal_Charge:                0.03
##########                     HBond_Acceptors:                   8
##########                        HBond_Donors:                   0
##########                         Heavy_Atoms:                  29
##########                          Grid_Score:          -31.302835
##########                     Grid_vdw_energy:          -30.894173
##########                      Grid_es_energy:           -0.408663
##########           Internal_energy_repulsive:           15.469385

@<TRIPOS>MOLECULE
ZINC000409064708
 47 49 1 0 0
SMALL
USER_CHARGES


@<TRIPOS>ATOM
      1 C1        -13.3661    0.7804   50.4558 C.3     1  ZINC000409064708    0.0400
      2 O2        -12.2873    0.9571   51.4116 O.3     1  ZINC000409064708   -0.3500
      3 C3        -12.2532    0.1133   52.4548 C.2     1  ZINC000409064708    0.4600
      4 O4        -12.9442   -0.8779   52.4532 O.2     1  ZINC000409064708   -0.4900
      5 C5        -11.3528    0.4021   53.6283 C.3     1  ZINC000409064708    0.1400
      6 H6        -11.6959    1.3034   54.1363 H       1  ZINC000409064708    0.1500
      7 C7        -11.3897   -0.7775   54.6019 C.3     1  ZINC000409064708   -0.1600
      8 N8         -9.9810    0.6011   53.1539 N.am    1  ZINC000409064708   -0.5600
      9 C9         -9.3838   -0.3349   52.4073 C.2     1  ZINC000409064708    0.5400
     10 O10        -9.8652   -1.3937   52.0513 O.2     1  ZINC000409064708   -0.4200
     11 S11        -7.7575    0.2633   52.0356 S.3     1  ZINC000409064708   -0.0100
     12 C12        -7.9602    1.7859   52.9250 C.2     1  ZINC000409064708   -0.2400
     13 C13        -7.0610    2.7912   53.0749 C.2     1  ZINC000409064708    0.0900
     14 C14        -5.7328    2.6865   52.4575 C.ar    1  ZINC000409064708   -0.1400
     15 C15        -4.5806    2.8293   53.2404 C.ar    1  ZINC000409064708    0.0000
     16 C16        -3.3379    2.7301   52.6563 C.ar    1  ZINC000409064708   -0.1600
     17 C17        -3.2258    2.4892   51.2917 C.ar    1  ZINC000409064708    0.1600
     18 O18        -1.9978    2.3923   50.7209 O.3     1  ZINC000409064708   -0.3000
     19 C19        -1.0894    3.4717   50.9487 C.3     1  ZINC000409064708    0.1000
     20 C20         0.1639    2.9449   51.5987 C.ar    1  ZINC000409064708   -0.0700
     21 C21         0.6497    3.5412   52.7471 C.ar    1  ZINC000409064708   -0.1000
     22 C22         1.7996    3.0589   53.3446 C.ar    1  ZINC000409064708   -0.0900
     23 C23         2.4644    1.9799   52.7941 C.ar    1  ZINC000409064708   -0.1400
     24 C24         1.9784    1.3812   51.6438 C.ar    1  ZINC000409064708    0.1000
     25 F25         2.6276    0.3262   51.1047 F       1  ZINC000409064708   -0.1400
     26 C26         0.8241    1.8617   51.0495 C.ar    1  ZINC000409064708   -0.1300
     27 C27        -4.3661    2.3467   50.5097 C.ar    1  ZINC000409064708   -0.2200
     28 C28        -5.6137    2.4377   51.0845 C.ar    1  ZINC000409064708   -0.0400
     29 C29        -9.3260    1.7096   53.4559 C.2     1  ZINC000409064708    0.5600
     30 O30        -9.8166    2.5967   54.1295 O.2     1  ZINC000409064708   -0.4600
     31 H31       -13.3080   -0.2184   50.0229 H       1  ZINC000409064708    0.0700
     32 H32       -14.3237    0.9016   50.9621 H       1  ZINC000409064708    0.0700
     33 H33       -13.2764    1.5249   49.6649 H       1  ZINC000409064708    0.1100
     34 H34       -12.4102   -0.9255   54.9549 H       1  ZINC000409064708    0.1000
     35 H35       -11.0466   -1.6788   54.0939 H       1  ZINC000409064708    0.0800
     36 H36       -10.7384   -0.5687   55.4506 H       1  ZINC000409064708    0.0800
     37 H37        -7.3222    3.6684   53.6485 H       1  ZINC000409064708    0.1600
     38 H38        -4.6667    3.0172   54.3004 H       1  ZINC000409064708    0.1300
     39 H39        -2.4487    2.8400   53.2591 H       1  ZINC000409064708    0.1400
     40 H40        -0.8362    3.9403   49.9978 H       1  ZINC000409064708    0.0800
     41 H41        -1.5564    4.2075   51.6034 H       1  ZINC000409064708    0.0800
     42 H42         0.1310    4.3848   53.1779 H       1  ZINC000409064708    0.1300
     43 H43         2.1785    3.5259   54.2416 H       1  ZINC000409064708    0.1400
     44 H44         3.3630    1.6037   53.2605 H       1  ZINC000409064708    0.1400
     45 H45         0.4439    1.3955   50.1526 H       1  ZINC000409064708    0.1400
     46 H46        -4.2732    2.1599   49.4501 H       1  ZINC000409064708    0.1300
     47 H47        -6.4991    2.3267   50.4760 H       1  ZINC000409064708    0.1300
@<TRIPOS>BOND
     1     1     2    1
     2     1    31    1
     3     1    32    1
     4     1    33    1
     5     2     3    1
     6     3     4    2
     7     3     5    1
     8     5     6    1
     9     5     7    1
    10     5     8    1
    11     7    34    1
    12     7    35    1
    13     7    36    1
    14     8    29   am
    15     8     9   am
    16     9    10    2
    17     9    11    1
    18    11    12    1
    19    12    13    2
    20    12    29    1
    21    13    14    1
    22    13    37    1
    23    14    28   ar
    24    14    15   ar
    25    15    16   ar
    26    15    38    1
    27    16    17   ar
    28    16    39    1
    29    17    18    1
    30    17    27   ar
    31    18    19    1
    32    19    20    1
    33    19    40    1
    34    19    41    1
    35    20    26   ar
    36    20    21   ar
    37    21    22   ar
    38    21    42    1
    39    22    23   ar
    40    22    43    1
    41    23    24   ar
    42    23    44    1
    43    24    25    1
    44    24    26   ar
    45    26    45    1
    46    27    28   ar
    47    27    46    1
    48    28    47    1
    49    29    30    2
@<TRIPOS>SUBSTRUCTURE
     1 ZINC000409064708        1 TEMP              0 ****  ****    0 ROOT


##########                                Name:    ZINC001000186632
##########                DOCK_Rotatable_Bonds:                   7
##########                         Heavy_Atoms:                  23
##########                    Molecular_Weight:             342.379
##########                DOCK_Rotatable_Bonds:                   7
##########                       Formal_Charge:          -0.0100001
##########                     HBond_Acceptors:                  11
##########                        HBond_Donors:                   2
##########                         Heavy_Atoms:                  23
##########                          Grid_Score:          -31.300276
##########                     Grid_vdw_energy:          -30.965492
##########                      Grid_es_energy:           -0.334783
##########           Internal_energy_repulsive:            7.961371

@<TRIPOS>MOLECULE
ZINC001000186632
 41 43 1 0 0
SMALL
USER_CHARGES


@<TRIPOS>ATOM
      1 O1        -11.0975   -2.3343   53.2460 O.2     1  ZINC001000186632   -0.5200
      2 C2        -11.1665   -1.4353   54.0572 C.2     1  ZINC001000186632    0.5300
      3 C3        -10.7987   -0.0297   53.6572 C.3     1  ZINC001000186632   -0.0500
      4 C4         -9.4892   -0.0459   52.9115 C.2     1  ZINC001000186632    0.2400
      5 N5         -9.2704   -0.6520   51.7742 N.2     1  ZINC001000186632   -0.3000
      6 N6         -7.9278   -0.4125   51.4387 N.pl3   1  ZINC001000186632   -0.4800
      7 C7         -7.4196    0.3432   52.4274 C.2     1  ZINC001000186632    0.2700
      8 N8         -8.3685    0.5599   53.3015 N.2     1  ZINC001000186632   -0.5400
      9 N9        -11.5775   -1.6924   55.3148 N.am    1  ZINC001000186632   -0.7100
     10 C10       -11.9350   -3.0588   55.7036 C.3     1  ZINC001000186632    0.1100
     11 C11       -11.2865   -3.5178   57.0223 C.3     1  ZINC001000186632    0.1000
     12 N12       -12.4950   -2.9888   57.6839 N.am    1  ZINC001000186632   -0.6500
     13 C13       -12.7710   -2.5325   58.9217 C.2     1  ZINC001000186632    0.5100
     14 O14       -13.8892   -2.1473   59.1907 O.2     1  ZINC001000186632   -0.5100
     15 C15       -11.6903   -2.5007   59.9714 C.3     1  ZINC001000186632    0.1500
     16 N16       -10.7845   -1.3803   59.7062 N.am    1  ZINC001000186632   -0.9800
     17 C17       -11.0011   -0.2965   58.7359 C.3     1  ZINC001000186632    0.0800
     18 C18       -10.2959    0.9884   59.2108 C.3     1  ZINC001000186632   -0.1300
     19 C19        -8.8897    0.5070   59.6714 C.3     1  ZINC001000186632   -0.6000
     20 S20        -9.3194   -1.0945   60.4551 S.o2    1  ZINC001000186632    2.5700
     21 O21        -9.6265   -0.9279   61.8325 O.2     1  ZINC001000186632   -0.9400
     22 O22        -8.4674   -2.1362   59.9988 O.2     1  ZINC001000186632   -0.9600
     23 C23       -13.2798   -3.1602   56.4460 C.3     1  ZINC001000186632    0.0900
     24 H24       -11.5777    0.3809   53.0146 H       1  ZINC001000186632    0.1300
     25 H25       -10.7009    0.5883   54.5498 H       1  ZINC001000186632    0.1200
     26 H26        -7.4601   -0.7297   50.6502 H       1  ZINC001000186632    0.4400
     27 H27        -6.4056    0.7105   52.4877 H       1  ZINC001000186632    0.2200
     28 H28       -11.6363   -0.9726   55.9624 H       1  ZINC001000186632    0.4100
     29 H29       -11.8289   -3.7743   54.8881 H       1  ZINC001000186632    0.1200
     30 H30       -11.1779   -4.5992   57.1053 H       1  ZINC001000186632    0.1000
     31 H31       -10.3748   -2.9768   57.2751 H       1  ZINC001000186632    0.0900
     32 H32       -12.1429   -2.3769   60.9553 H       1  ZINC001000186632    0.1100
     33 H33       -11.1299   -3.4352   59.9443 H       1  ZINC001000186632    0.1100
     34 H34       -10.5982   -0.5928   57.7674 H       1  ZINC001000186632    0.0800
     35 H35       -12.0701   -0.1070   58.6386 H       1  ZINC001000186632    0.0900
     36 H36       -10.2054    1.6992   58.3895 H       1  ZINC001000186632    0.1100
     37 H37       -10.8379    1.4347   60.0445 H       1  ZINC001000186632    0.1000
     38 H38        -8.2235    0.3664   58.8202 H       1  ZINC001000186632    0.1400
     39 H39        -8.4569    1.1946   60.3980 H       1  ZINC001000186632    0.1400
     40 H40       -13.9594   -2.3336   56.2387 H       1  ZINC001000186632    0.0900
     41 H41       -13.7568   -4.1366   56.3597 H       1  ZINC001000186632    0.1100
@<TRIPOS>BOND
     1     1     2    2
     2     2     3    1
     3     2     9   am
     4     3     4    1
     5     3    24    1
     6     3    25    1
     7     4     8    1
     8     4     5    2
     9     5     6    1
    10     6     7    1
    11     6    26    1
    12     7     8    2
    13     7    27    1
    14     9    10    1
    15     9    28    1
    16    10    23    1
    17    10    11    1
    18    10    29    1
    19    11    12    1
    20    11    30    1
    21    11    31    1
    22    12    13   am
    23    12    23    1
    24    13    14    2
    25    13    15    1
    26    15    16    1
    27    15    32    1
    28    15    33    1
    29    16    20   am
    30    16    17    1
    31    17    18    1
    32    17    34    1
    33    17    35    1
    34    18    19    1
    35    18    36    1
    36    18    37    1
    37    19    20    1
    38    19    38    1
    39    19    39    1
    40    20    21    2
    41    20    22    2
    42    23    40    1
    43    23    41    1
@<TRIPOS>SUBSTRUCTURE
     1 ZINC001000186632        1 TEMP              0 ****  ****    0 ROOT


##########                                Name:    ZINC000518242403
##########                DOCK_Rotatable_Bonds:                   6
##########                         Heavy_Atoms:                  27
##########                    Molecular_Weight:             370.405
##########                DOCK_Rotatable_Bonds:                   6
##########                       Formal_Charge:          -0.0200004
##########                     HBond_Acceptors:                   7
##########                        HBond_Donors:                   1
##########                         Heavy_Atoms:                  27
##########                          Grid_Score:          -31.290915
##########                     Grid_vdw_energy:          -32.110779
##########                      Grid_es_energy:            0.819864
##########           Internal_energy_repulsive:           14.091410

@<TRIPOS>MOLECULE
ZINC000518242403
 49 52 1 0 0
SMALL
USER_CHARGES


@<TRIPOS>ATOM
      1 C1         -4.2326    2.9486   49.9423 C.3     1  ZINC000518242403   -0.1800
      2 C2         -3.9559    2.1909   51.2424 C.3     1  ZINC000518242403    0.1000
      3 N3         -5.0292    2.4600   52.2024 N.am    1  ZINC000518242403   -0.6200
      4 C4         -4.7951    3.3692   53.3271 C.3     1  ZINC000518242403    0.1500
      5 C5         -3.4844    2.9943   54.0217 C.3     1  ZINC000518242403    0.0300
      6 H6         -3.1207    2.0437   53.6318 H       1  ZINC000518242403    0.0900
      7 C7         -2.4371    4.0889   53.7760 C.3     1  ZINC000518242403    0.0300
      8 O8         -1.2305    3.7141   54.4494 O.3     1  ZINC000518242403   -0.3000
      9 C9         -1.3572    3.2718   55.7303 C.ar    1  ZINC000518242403    0.0500
     10 C10        -0.2411    3.2388   56.5525 C.ar    1  ZINC000518242403   -0.1100
     11 C11        -0.3535    2.7891   57.8549 C.ar    1  ZINC000518242403   -0.1200
     12 C12        -1.5779    2.3714   58.3411 C.ar    1  ZINC000518242403   -0.1200
     13 C13        -2.6949    2.4032   57.5271 C.ar    1  ZINC000518242403   -0.1100
     14 C14        -2.5894    2.8543   56.2201 C.ar    1  ZINC000518242403    0.0500
     15 O15        -3.6995    2.8867   55.4331 O.3     1  ZINC000518242403   -0.3000
     16 C16        -6.2320    1.8713   52.0509 C.2     1  ZINC000518242403    0.7100
     17 O17        -6.4259    1.1155   51.1182 O.2     1  ZINC000518242403   -0.5700
     18 N18        -7.2201    2.1202   52.9331 N.am    1  ZINC000518242403   -0.6800
     19 C19        -8.4708    1.5080   52.7755 C.ar    1  ZINC000518242403    0.1700
     20 C20        -8.5940    0.1334   52.9219 C.ar    1  ZINC000518242403   -0.1000
     21 C21        -9.8305   -0.4711   52.7665 C.ar    1  ZINC000518242403    0.0500
     22 C22       -10.9482    0.3027   52.4634 C.ar    1  ZINC000518242403    0.0200
     23 C23       -10.8207    1.6745   52.3174 C.ar    1  ZINC000518242403   -0.0800
     24 C24        -9.5878    2.2773   52.4785 C.ar    1  ZINC000518242403   -0.1000
     25 C25        -9.4530    3.7698   52.3189 C.3     1  ZINC000518242403   -0.1100
     26 O26       -12.0339   -0.5203   52.3632 O.3     1  ZINC000518242403   -0.3100
     27 C27       -11.4971   -1.8468   52.2041 C.3     1  ZINC000518242403    0.2100
     28 O28       -10.2154   -1.7777   52.8564 O.3     1  ZINC000518242403   -0.3100
     29 H29        -5.1843    2.6190   49.5253 H       1  ZINC000518242403    0.0600
     30 H30        -4.2767    4.0181   50.1475 H       1  ZINC000518242403    0.0600
     31 H31        -3.4341    2.7482   49.2280 H       1  ZINC000518242403    0.0700
     32 H32        -3.9118    1.1212   51.0371 H       1  ZINC000518242403    0.1000
     33 H33        -3.0042    2.5203   51.6594 H       1  ZINC000518242403    0.0700
     34 H34        -4.7314    4.3933   52.9593 H       1  ZINC000518242403    0.1100
     35 H35        -5.6184    3.2885   54.0369 H       1  ZINC000518242403    0.0900
     36 H36        -2.2475    4.1829   52.7068 H       1  ZINC000518242403    0.1300
     37 H37        -2.7985    5.0385   54.1707 H       1  ZINC000518242403    0.0800
     38 H38         0.7169    3.5645   56.1750 H       1  ZINC000518242403    0.1300
     39 H39         0.5170    2.7643   58.4936 H       1  ZINC000518242403    0.1300
     40 H40        -1.6623    2.0193   59.3585 H       1  ZINC000518242403    0.1300
     41 H41        -3.6505    2.0763   57.9094 H       1  ZINC000518242403    0.1300
     42 H42        -7.0655    2.7231   53.6771 H       1  ZINC000518242403    0.4100
     43 H43        -7.7260   -0.4648   53.1566 H       1  ZINC000518242403    0.1500
     44 H44       -11.6874    2.2744   52.0824 H       1  ZINC000518242403    0.1400
     45 H45        -9.6123    4.2541   53.2823 H       1  ZINC000518242403    0.0800
     46 H46        -8.4538    4.0074   51.9536 H       1  ZINC000518242403    0.0700
     47 H47       -10.1952    4.1273   51.6054 H       1  ZINC000518242403    0.0800
     48 H48       -12.1372   -2.5804   52.6943 H       1  ZINC000518242403    0.1300
     49 H49       -11.3768   -2.0871   51.1477 H       1  ZINC000518242403    0.0900
@<TRIPOS>BOND
     1     1     2    1
     2     1    29    1
     3     1    30    1
     4     1    31    1
     5     2     3    1
     6     2    32    1
     7     2    33    1
     8     3     4    1
     9     3    16   am
    10     4     5    1
    11     4    34    1
    12     4    35    1
    13     5     6    1
    14     5    15    1
    15     5     7    1
    16     7     8    1
    17     7    36    1
    18     7    37    1
    19     8     9    1
    20     9    14   ar
    21     9    10   ar
    22    10    11   ar
    23    10    38    1
    24    11    12   ar
    25    11    39    1
    26    12    13   ar
    27    12    40    1
    28    13    14   ar
    29    13    41    1
    30    14    15    1
    31    16    17    2
    32    16    18   am
    33    18    19    1
    34    18    42    1
    35    19    24   ar
    36    19    20   ar
    37    20    21   ar
    38    20    43    1
    39    21    28    1
    40    21    22   ar
    41    22    23   ar
    42    22    26    1
    43    23    24   ar
    44    23    44    1
    45    24    25    1
    46    25    45    1
    47    25    46    1
    48    25    47    1
    49    26    27    1
    50    27    28    1
    51    27    48    1
    52    27    49    1
@<TRIPOS>SUBSTRUCTURE
     1 ZINC000518242403        1 TEMP              0 ****  ****    0 ROOT


##########                                Name:    ZINC000457806032
##########                DOCK_Rotatable_Bonds:                   8
##########                         Heavy_Atoms:                  24
##########                    Molecular_Weight:             387.911
##########                DOCK_Rotatable_Bonds:                   8
##########                       Formal_Charge:        -1.49012e-07
##########                     HBond_Acceptors:                   9
##########                        HBond_Donors:                   2
##########                         Heavy_Atoms:                  24
##########                          Grid_Score:          -31.264721
##########                     Grid_vdw_energy:          -26.669243
##########                      Grid_es_energy:           -4.595479
##########           Internal_energy_repulsive:            6.620946

@<TRIPOS>MOLECULE
ZINC000457806032
 42 43 1 0 0
SMALL
USER_CHARGES


@<TRIPOS>ATOM
      1 C1         -5.2046    3.3982   65.7835 C.3     1  ZINC000457806032    0.0800
      2 N2         -5.4770    2.7617   67.0747 N.am    1  ZINC000457806032   -1.0100
      3 C3         -5.6654    3.5849   68.2718 C.3     1  ZINC000457806032    0.0900
      4 S4         -5.5720    1.1119   67.1810 S.o2    1  ZINC000457806032    2.7900
      5 O5         -4.3716    0.6036   66.6153 O.2     1  ZINC000457806032   -0.9700
      6 O6         -5.9915    0.8187   68.5066 O.2     1  ZINC000457806032   -0.9700
      7 N7         -6.8014    0.6265   66.1833 N.am    1  ZINC000457806032   -1.1300
      8 C8         -8.1651    1.1104   66.4124 C.3     1  ZINC000457806032    0.1100
      9 C9         -8.5799    2.0300   65.2621 C.3     1  ZINC000457806032    0.1100
     10 N10        -8.5056    1.2941   63.9975 N.am    1  ZINC000457806032   -0.7300
     11 C11        -9.5291    0.5044   63.6162 C.2     1  ZINC000457806032    0.5800
     12 O12       -10.5150    0.4038   64.3214 O.2     1  ZINC000457806032   -0.5300
     13 C13        -9.4536   -0.2365   62.3461 C.2     1  ZINC000457806032   -0.1500
     14 C14        -8.3133   -0.8365   61.9036 C.2     1  ZINC000457806032   -0.2200
     15 S15        -8.5832   -1.6016   60.4029 S.3     1  ZINC000457806032    0.2400
     16 C16       -10.2657   -1.0965   60.3828 C.2     1  ZINC000457806032   -0.1700
     17 C17       -11.2324   -1.4074   59.3076 C.ar    1  ZINC000457806032   -0.0100
     18 C18       -12.1374   -0.4363   58.8772 C.ar    1  ZINC000457806032   -0.0900
     19 C19       -13.0368   -0.7319   57.8739 C.ar    1  ZINC000457806032   -0.1000
     20 C20       -13.0431   -1.9895   57.2945 C.ar    1  ZINC000457806032   -0.0300
     21 Cl21      -14.1782   -2.3545   56.0328 Cl      1  ZINC000457806032   -0.0600
     22 C22       -12.1472   -2.9570   57.7172 C.ar    1  ZINC000457806032   -0.1000
     23 C23       -11.2393   -2.6710   58.7157 C.ar    1  ZINC000457806032   -0.1000
     24 C24       -10.5456   -0.3918   61.4906 C.2     1  ZINC000457806032   -0.0700
     25 H25        -4.1282    3.5101   65.6535 H       1  ZINC000457806032    0.0600
     26 H26        -5.6049    2.7783   64.9812 H       1  ZINC000457806032    0.0800
     27 H27        -5.6781    4.3796   65.7551 H       1  ZINC000457806032    0.0800
     28 H28        -6.7209    3.8350   68.3784 H       1  ZINC000457806032    0.0600
     29 H29        -5.3326    3.0311   69.1496 H       1  ZINC000457806032    0.0700
     30 H30        -5.0826    4.5013   68.1780 H       1  ZINC000457806032    0.0700
     31 H31        -6.6186    0.0219   65.4472 H       1  ZINC000457806032    0.4200
     32 H32        -8.8478    0.2622   66.4637 H       1  ZINC000457806032    0.0700
     33 H33        -8.2016    1.6635   67.3510 H       1  ZINC000457806032    0.0900
     34 H34        -9.6016    2.3744   65.4226 H       1  ZINC000457806032    0.0800
     35 H35        -7.9091    2.8883   65.2231 H       1  ZINC000457806032    0.0800
     36 H36        -7.7199    1.3753   63.4345 H       1  ZINC000457806032    0.4000
     37 H37        -7.3701   -0.8288   62.4296 H       1  ZINC000457806032    0.1700
     38 H38       -12.1338    0.5448   59.3288 H       1  ZINC000457806032    0.1400
     39 H39       -13.7376    0.0188   57.5399 H       1  ZINC000457806032    0.1400
     40 H40       -12.1568   -3.9361   57.2617 H       1  ZINC000457806032    0.1400
     41 H41       -10.5408   -3.4263   59.0444 H       1  ZINC000457806032    0.1300
     42 H42       -11.5214    0.0227   61.6966 H       1  ZINC000457806032    0.1600
@<TRIPOS>BOND
     1     1     2    1
     2     1    25    1
     3     1    26    1
     4     1    27    1
     5     2     3    1
     6     2     4   am
     7     3    28    1
     8     3    29    1
     9     3    30    1
    10     4     5    2
    11     4     6    2
    12     4     7   am
    13     7     8    1
    14     7    31    1
    15     8     9    1
    16     8    32    1
    17     8    33    1
    18     9    10    1
    19     9    34    1
    20     9    35    1
    21    10    11   am
    22    10    36    1
    23    11    12    2
    24    11    13    1
    25    13    24    1
    26    13    14    2
    27    14    15    1
    28    14    37    1
    29    15    16    1
    30    16    17    1
    31    16    24    2
    32    17    23   ar
    33    17    18   ar
    34    18    19   ar
    35    18    38    1
    36    19    20   ar
    37    19    39    1
    38    20    21    1
    39    20    22   ar
    40    22    23   ar
    41    22    40    1
    42    23    41    1
    43    24    42    1
@<TRIPOS>SUBSTRUCTURE
     1 ZINC000457806032        1 TEMP              0 ****  ****    0 ROOT


##########                                Name:    ZINC001369071670
##########                DOCK_Rotatable_Bonds:                   8
##########                         Heavy_Atoms:                  24
##########                    Molecular_Weight:             335.366
##########                DOCK_Rotatable_Bonds:                   8
##########                       Formal_Charge:        -2.90573e-07
##########                     HBond_Acceptors:                  10
##########                        HBond_Donors:                   1
##########                         Heavy_Atoms:                  24
##########                          Grid_Score:          -31.261757
##########                     Grid_vdw_energy:          -29.545712
##########                      Grid_es_energy:           -1.716046
##########           Internal_energy_repulsive:            9.432575

@<TRIPOS>MOLECULE
ZINC001369071670
 45 47 1 0 0
SMALL
USER_CHARGES


@<TRIPOS>ATOM
      1 C1         -7.7808    2.9022   50.7430 C.3     1  ZINC001369071670   -0.0800
      2 C2         -8.2917    2.5418   52.1143 C.2     1  ZINC001369071670    0.0000
      3 C3         -7.5530    2.1285   53.1694 C.2     1  ZINC001369071670   -0.2300
      4 C4         -8.5091    1.9268   54.1987 C.2     1  ZINC001369071670    0.2100
      5 O5         -8.2651    1.5080   55.4663 O.3     1  ZINC001369071670   -0.2600
      6 C6         -9.3868    1.4183   56.3471 C.3     1  ZINC001369071670    0.0400
      7 C7         -8.9297    0.9183   57.6933 C.2     1  ZINC001369071670    0.5200
      8 O8         -7.7810    1.0864   58.0446 O.2     1  ZINC001369071670   -0.5100
      9 N9         -9.7973    0.2845   58.5069 N.am    1  ZINC001369071670   -0.7200
     10 C10        -9.3533   -0.2000   59.8163 C.3     1  ZINC001369071670    0.1500
     11 H11        -8.3167   -0.5302   59.7492 H       1  ZINC001369071670    0.0900
     12 C12        -9.4633    0.9298   60.8422 C.3     1  ZINC001369071670   -0.1700
     13 C13       -10.2347   -1.3722   60.2521 C.3     1  ZINC001369071670   -0.1200
     14 C14       -11.7422   -1.0633   60.2096 C.3     1  ZINC001369071670    0.0100
     15 N15       -11.9028   -2.4171   59.6345 N.3     1  ZINC001369071670   -0.4800
     16 C16       -12.8651   -2.4068   58.5247 C.3     1  ZINC001369071670    0.1000
     17 C17       -14.2110   -2.8670   59.0226 C.2     1  ZINC001369071670    0.1900
     18 N18       -14.7788   -2.5406   60.1579 N.2     1  ZINC001369071670   -0.3000
     19 N19       -15.9204   -3.1347   60.2171 N.2     1  ZINC001369071670   -0.0700
     20 N20       -16.0957   -3.8317   59.1491 N.2     1  ZINC001369071670   -0.0900
     21 N21       -15.0658   -3.6884   58.3853 N.pl3   1  ZINC001369071670   -0.3000
     22 C22       -14.8610   -4.3105   57.0748 C.3     1  ZINC001369071670    0.0800
     23 C23       -10.5119   -2.3895   59.1305 C.3     1  ZINC001369071670    0.0200
     24 N24        -9.6709    2.2253   53.6818 N.2     1  ZINC001369071670   -0.4100
     25 O25        -9.5664    2.5736   52.5285 O.3     1  ZINC001369071670    0.1000
     26 H26        -8.6168    3.2023   50.1112 H       1  ZINC001369071670    0.0900
     27 H27        -7.0725    3.7267   50.8242 H       1  ZINC001369071670    0.1000
     28 H28        -7.2838    2.0382   50.3018 H       1  ZINC001369071670    0.1000
     29 H29        -6.4836    1.9853   53.2175 H       1  ZINC001369071670    0.1800
     30 H30        -9.8398    2.4033   56.4601 H       1  ZINC001369071670    0.1000
     31 H31       -10.1200    0.7265   55.9324 H       1  ZINC001369071670    0.1000
     32 H32       -10.7156    0.1491   58.2255 H       1  ZINC001369071670    0.4000
     33 H33        -8.8354    1.7649   60.5317 H       1  ZINC001369071670    0.0600
     34 H34       -10.4999    1.2600   60.9093 H       1  ZINC001369071670    0.0600
     35 H35        -9.1331    0.5693   61.8164 H       1  ZINC001369071670    0.0700
     36 H36        -9.9048   -1.8276   61.1858 H       1  ZINC001369071670    0.1100
     37 H37       -12.1948   -0.9480   61.1944 H       1  ZINC001369071670    0.1000
     38 H38       -12.0066   -0.2599   59.5220 H       1  ZINC001369071670    0.0800
     39 H39       -12.9511   -1.3953   58.1277 H       1  ZINC001369071670    0.1000
     40 H40       -12.5199   -3.0778   57.7381 H       1  ZINC001369071670    0.0900
     41 H41       -15.2587   -3.6585   56.2970 H       1  ZINC001369071670    0.1000
     42 H42       -13.7950   -4.4657   56.9088 H       1  ZINC001369071670    0.1000
     43 H43       -15.3772   -5.2701   57.0435 H       1  ZINC001369071670    0.1100
     44 H44       -10.4165   -1.9739   58.1273 H       1  ZINC001369071670    0.0800
     45 H45        -9.9815   -3.3338   59.2532 H       1  ZINC001369071670    0.1000
@<TRIPOS>BOND
     1     1     2    1
     2     1    26    1
     3     1    27    1
     4     1    28    1
     5     2    25    1
     6     2     3    2
     7     3     4    1
     8     3    29    1
     9     4     5    1
    10     4    24    2
    11     5     6    1
    12     6     7    1
    13     6    30    1
    14     6    31    1
    15     7     8    2
    16     7     9   am
    17     9    10    1
    18     9    32    1
    19    10    11    1
    20    10    12    1
    21    10    13    1
    22    12    33    1
    23    12    34    1
    24    12    35    1
    25    13    23    1
    26    13    14    1
    27    13    36    1
    28    14    15    1
    29    14    37    1
    30    14    38    1
    31    15    16    1
    32    15    23    1
    33    16    17    1
    34    16    39    1
    35    16    40    1
    36    17    21    1
    37    17    18    2
    38    18    19    1
    39    19    20    2
    40    20    21    1
    41    21    22    1
    42    22    41    1
    43    22    42    1
    44    22    43    1
    45    23    44    1
    46    23    45    1
    47    24    25    1
@<TRIPOS>SUBSTRUCTURE
     1 ZINC001369071670        1 TEMP              0 ****  ****    0 ROOT


##########                                Name:    ZINC000507831344
##########                DOCK_Rotatable_Bonds:                   6
##########                         Heavy_Atoms:                  31
##########                    Molecular_Weight:              422.53
##########                DOCK_Rotatable_Bonds:                   6
##########                       Formal_Charge:          -0.0200002
##########                     HBond_Acceptors:                   8
##########                        HBond_Donors:                   2
##########                         Heavy_Atoms:                  31
##########                          Grid_Score:          -31.246653
##########                     Grid_vdw_energy:          -30.912907
##########                      Grid_es_energy:           -0.333746
##########           Internal_energy_repulsive:           30.599945

@<TRIPOS>MOLECULE
ZINC000507831344
 61 64 1 0 0
SMALL
USER_CHARGES


@<TRIPOS>ATOM
      1 C1          0.8377    3.5969   53.4319 C.3     1  ZINC000507831344   -0.1000
      2 C2         -0.2734    3.1247   52.5299 C.ar    1  ZINC000507831344   -0.0800
      3 C3         -1.5865    3.4618   52.8015 C.ar    1  ZINC000507831344   -0.0800
      4 C4         -2.5817    3.0033   51.9396 C.ar    1  ZINC000507831344    0.0900
      5 N5         -3.9264    3.3211   52.1757 N.am    1  ZINC000507831344   -0.6700
      6 C6         -4.6270    4.0133   51.2557 C.2     1  ZINC000507831344    0.5100
      7 O7         -4.0939    4.3612   50.2232 O.2     1  ZINC000507831344   -0.5100
      8 C8         -6.0727    4.3549   51.5095 C.3     1  ZINC000507831344   -0.1400
      9 C9         -6.9391    3.7676   50.3936 C.3     1  ZINC000507831344   -0.0500
     10 C10        -8.0324    2.9244   50.9976 C.2     1  ZINC000507831344   -0.2200
     11 C11        -7.7850    1.6384   51.3616 C.2     1  ZINC000507831344    0.2100
     12 C12        -6.4156    1.0406   51.1657 C.3     1  ZINC000507831344   -0.1400
     13 N13        -8.7877    0.8981   51.9048 N.pl3   1  ZINC000507831344   -0.3000
     14 N14        -8.8361   -0.4228   52.3664 N.am    1  ZINC000507831344   -0.5100
     15 C15       -10.0815   -0.6730   52.8139 C.2     1  ZINC000507831344    0.5500
     16 O16       -10.4724   -1.7285   53.2854 O.2     1  ZINC000507831344   -0.5400
     17 C17       -10.8479    0.4794   52.6468 C.2     1  ZINC000507831344   -0.3500
     18 C18       -10.0303    1.4539   52.0786 C.2     1  ZINC000507831344    0.3500
     19 N19       -10.2642    2.7209   51.7175 N.2     1  ZINC000507831344   -0.4800
     20 C20        -9.3100    3.4601   51.1942 C.2     1  ZINC000507831344    0.2500
     21 C21        -9.5966    4.8849   50.7956 C.3     1  ZINC000507831344   -0.1200
     22 C22        -2.2252    2.2298   50.8458 C.ar    1  ZINC000507831344    0.0800
     23 N23        -0.9615    1.9268   50.6166 N.ar    1  ZINC000507831344   -0.4900
     24 C24         0.0098    2.3490   51.4104 C.ar    1  ZINC000507831344    0.2800
     25 N25         1.3286    2.0041   51.1277 N.3     1  ZINC000507831344   -0.4800
     26 C26         1.4527    0.5632   50.8731 C.3     1  ZINC000507831344    0.0600
     27 C27         2.9300    0.1980   50.7108 C.3     1  ZINC000507831344   -0.1200
     28 C28         3.5223    0.9942   49.5447 C.3     1  ZINC000507831344   -0.1200
     29 C29         3.3368    2.4904   49.8121 C.3     1  ZINC000507831344   -0.1100
     30 C30         1.8478    2.7891   50.0006 C.3     1  ZINC000507831344    0.0900
     31 H31         1.3063    2.5232   49.0927 H       1  ZINC000507831344    0.0600
     32 C32         1.6595    4.2800   50.2882 C.3     1  ZINC000507831344   -0.1400
     33 H33         1.2625    4.5182   53.0333 H       1  ZINC000507831344    0.0700
     34 H34         0.4414    3.7817   54.4304 H       1  ZINC000507831344    0.0600
     35 H35         1.6128    2.8323   53.4844 H       1  ZINC000507831344    0.0800
     36 H36        -1.8354    4.0658   53.6614 H       1  ZINC000507831344    0.1500
     37 H37        -4.3528    3.0430   53.0015 H       1  ZINC000507831344    0.4100
     38 H38        -6.3818    3.9371   52.4676 H       1  ZINC000507831344    0.1000
     39 H39        -6.1918    5.4382   51.5301 H       1  ZINC000507831344    0.1000
     40 H40        -7.3829    4.5770   49.8139 H       1  ZINC000507831344    0.0900
     41 H41        -6.3219    3.1496   49.7415 H       1  ZINC000507831344    0.1000
     42 H42        -5.8124    1.2145   52.0568 H       1  ZINC000507831344    0.1000
     43 H43        -6.5086   -0.0318   50.9935 H       1  ZINC000507831344    0.0800
     44 H44        -5.9353    1.5065   50.3052 H       1  ZINC000507831344    0.1100
     45 H45        -8.0976   -1.0517   52.3639 H       1  ZINC000507831344    0.4400
     46 H46       -11.8888    0.5957   52.9102 H       1  ZINC000507831344    0.1700
     47 H47       -10.6380    5.1210   51.0147 H       1  ZINC000507831344    0.0900
     48 H48        -8.9462    5.5568   51.3555 H       1  ZINC000507831344    0.1000
     49 H49        -9.4131    5.0074   49.7281 H       1  ZINC000507831344    0.0900
     50 H50        -2.9906    1.8707   50.1738 H       1  ZINC000507831344    0.1600
     51 H51         1.0316    0.0087   51.7117 H       1  ZINC000507831344    0.0700
     52 H52         0.9131    0.3077   49.9613 H       1  ZINC000507831344    0.0500
     53 H53         3.4677    0.4405   51.6274 H       1  ZINC000507831344    0.0700
     54 H54         3.0208   -0.8688   50.5064 H       1  ZINC000507831344    0.0700
     55 H55         4.5849    0.7696   49.4528 H       1  ZINC000507831344    0.0700
     56 H56         3.0107    0.7230   48.6213 H       1  ZINC000507831344    0.0600
     57 H57         3.8810    2.7690   50.7145 H       1  ZINC000507831344    0.0700
     58 H58         3.7183    3.0614   48.9656 H       1  ZINC000507831344    0.0700
     59 H59         1.9633    4.8595   49.4165 H       1  ZINC000507831344    0.0600
     60 H60         0.6104    4.4779   50.5084 H       1  ZINC000507831344    0.0500
     61 H61         2.2704    4.5648   51.1448 H       1  ZINC000507831344    0.0600
@<TRIPOS>BOND
     1     1     2    1
     2     1    33    1
     3     1    34    1
     4     1    35    1
     5     2    24   ar
     6     2     3   ar
     7     3     4   ar
     8     3    36    1
     9     4     5    1
    10     4    22   ar
    11     5     6   am
    12     5    37    1
    13     6     7    2
    14     6     8    1
    15     8     9    1
    16     8    38    1
    17     8    39    1
    18     9    10    1
    19     9    40    1
    20     9    41    1
    21    10    20    1
    22    10    11    2
    23    11    12    1
    24    11    13    1
    25    12    42    1
    26    12    43    1
    27    12    44    1
    28    13    18    1
    29    13    14    1
    30    14    15   am
    31    14    45    1
    32    15    16    2
    33    15    17    1
    34    17    18    2
    35    17    46    1
    36    18    19    1
    37    19    20    2
    38    20    21    1
    39    21    47    1
    40    21    48    1
    41    21    49    1
    42    22    23   ar
    43    22    50    1
    44    23    24   ar
    45    24    25    1
    46    25    30    1
    47    25    26    1
    48    26    27    1
    49    26    51    1
    50    26    52    1
    51    27    28    1
    52    27    53    1
    53    27    54    1
    54    28    29    1
    55    28    55    1
    56    28    56    1
    57    29    30    1
    58    29    57    1
    59    29    58    1
    60    30    31    1
    61    30    32    1
    62    32    59    1
    63    32    60    1
    64    32    61    1
@<TRIPOS>SUBSTRUCTURE
     1 ZINC000507831344        1 TEMP              0 ****  ****    0 ROOT


##########                                Name:    ZINC000588570917
##########                DOCK_Rotatable_Bonds:                   7
##########                         Heavy_Atoms:                  25
##########                    Molecular_Weight:             366.481
##########                DOCK_Rotatable_Bonds:                   7
##########                       Formal_Charge:          -0.0100006
##########                     HBond_Acceptors:                   7
##########                        HBond_Donors:                   1
##########                         Heavy_Atoms:                  25
##########                          Grid_Score:          -31.235325
##########                     Grid_vdw_energy:          -31.263702
##########                      Grid_es_energy:            0.028377
##########           Internal_energy_repulsive:           11.637316

@<TRIPOS>MOLECULE
ZINC000588570917
 51 52 1 0 0
SMALL
USER_CHARGES


@<TRIPOS>ATOM
      1 C1         -7.2832    5.2078   50.8272 C.3     1  ZINC000588570917   -0.1300
      2 C2         -5.8827    4.6618   50.7219 C.2     1  ZINC000588570917   -0.0500
      3 C3         -5.6796    3.3472   50.7213 C.2     1  ZINC000588570917   -0.2000
      4 C4         -4.2791    2.8011   50.6142 C.3     1  ZINC000588570917   -0.0900
      5 C5         -3.8097    2.3274   51.9911 C.3     1  ZINC000588570917   -0.1500
      6 C6         -6.8218    2.4267   50.8252 C.2     1  ZINC000588570917    0.5600
      7 O7         -7.2318    1.8522   49.8347 O.2     1  ZINC000588570917   -0.5100
      8 N8         -7.4142    2.2198   52.0179 N.am    1  ZINC000588570917   -0.6800
      9 C9         -8.5002    1.3445   52.1167 C.ar    1  ZINC000588570917    0.2100
     10 C10        -8.2864   -0.0041   52.3704 C.ar    1  ZINC000588570917   -0.1700
     11 C11        -9.3614   -0.8657   52.4680 C.ar    1  ZINC000588570917    0.0000
     12 C12       -10.6494   -0.3870   52.3134 C.ar    1  ZINC000588570917   -0.7000
     13 S13       -12.0181   -1.4897   52.4387 S.o2    1  ZINC000588570917    2.6900
     14 O14       -13.0403   -0.9564   51.6081 O.2     1  ZINC000588570917   -0.9500
     15 O15       -11.4930   -2.8005   52.2806 O.2     1  ZINC000588570917   -0.9500
     16 N16       -12.5822   -1.3963   53.9929 N.am    1  ZINC000588570917   -1.0000
     17 C17       -12.6044   -2.5827   54.8632 C.3     1  ZINC000588570917    0.0900
     18 C18       -11.9353   -2.2189   56.1936 C.3     1  ZINC000588570917    0.0700
     19 H19       -10.8725   -2.0410   56.0300 H       1  ZINC000588570917    0.0700
     20 C20       -12.1139   -3.3690   57.1867 C.3     1  ZINC000588570917   -0.1500
     21 O21       -12.5425   -1.0356   56.7178 O.3     1  ZINC000588570917   -0.3700
     22 C22       -12.3834    0.1195   55.8905 C.3     1  ZINC000588570917    0.0800
     23 H23       -12.8339    0.9828   56.3802 H       1  ZINC000588570917    0.1200
     24 C24       -10.8938    0.3820   55.6603 C.3     1  ZINC000588570917   -0.1900
     25 C25       -13.0702   -0.1233   54.5464 C.3     1  ZINC000588570917    0.0900
     26 C26       -10.8659    0.9553   52.0613 C.ar    1  ZINC000588570917    0.0000
     27 C27        -9.7956    1.8231   51.9674 C.ar    1  ZINC000588570917   -0.1400
     28 H28        -7.2506    6.2972   50.8117 H       1  ZINC000588570917    0.0600
     29 H29        -7.8769    4.8501   49.9860 H       1  ZINC000588570917    0.0800
     30 H30        -7.7354    4.8712   51.7602 H       1  ZINC000588570917    0.0800
     31 H31        -5.0437    5.3378   50.6470 H       1  ZINC000588570917    0.1300
     32 H32        -4.2684    1.9623   49.9182 H       1  ZINC000588570917    0.0700
     33 H33        -3.6112    3.5826   50.2516 H       1  ZINC000588570917    0.0800
     34 H34        -4.4776    1.5460   52.3536 H       1  ZINC000588570917    0.0500
     35 H35        -2.7968    1.9324   51.9137 H       1  ZINC000588570917    0.0600
     36 H36        -3.8204    3.1662   52.6871 H       1  ZINC000588570917    0.0600
     37 H37        -7.0872    2.6779   52.8078 H       1  ZINC000588570917    0.4100
     38 H38        -7.2806   -0.3788   52.4909 H       1  ZINC000588570917    0.1400
     39 H39        -9.1958   -1.9147   52.6649 H       1  ZINC000588570917    0.1400
     40 H40       -13.6355   -2.8875   55.0421 H       1  ZINC000588570917    0.0900
     41 H41       -12.0575   -3.3970   54.3879 H       1  ZINC000588570917    0.1000
     42 H42       -11.6540   -4.2715   56.7840 H       1  ZINC000588570917    0.0700
     43 H43       -11.6379   -3.1098   58.1324 H       1  ZINC000588570917    0.0700
     44 H44       -13.1769   -3.5454   57.3513 H       1  ZINC000588570917    0.0700
     45 H45       -10.4445   -0.4810   55.1690 H       1  ZINC000588570917    0.0600
     46 H46       -10.7734    1.2627   55.0295 H       1  ZINC000588570917    0.0700
     47 H47       -10.4024    0.5513   56.6184 H       1  ZINC000588570917    0.0700
     48 H48       -12.8344    0.6911   53.8613 H       1  ZINC000588570917    0.1000
     49 H49       -14.1491   -0.1816   54.6906 H       1  ZINC000588570917    0.0900
     50 H50       -11.8730    1.3261   51.9411 H       1  ZINC000588570917    0.1400
     51 H51        -9.9653    2.8714   51.7708 H       1  ZINC000588570917    0.1500
@<TRIPOS>BOND
     1     1     2    1
     2     1    28    1
     3     1    29    1
     4     1    30    1
     5     2     3    2
     6     2    31    1
     7     3     4    1
     8     3     6    1
     9     4     5    1
    10     4    32    1
    11     4    33    1
    12     5    34    1
    13     5    35    1
    14     5    36    1
    15     6     7    2
    16     6     8   am
    17     8     9    1
    18     8    37    1
    19     9    27   ar
    20     9    10   ar
    21    10    11   ar
    22    10    38    1
    23    11    12   ar
    24    11    39    1
    25    12    13    1
    26    12    26   ar
    27    13    14    2
    28    13    15    2
    29    13    16   am
    30    16    25    1
    31    16    17    1
    32    17    18    1
    33    17    40    1
    34    17    41    1
    35    18    19    1
    36    18    20    1
    37    18    21    1
    38    20    42    1
    39    20    43    1
    40    20    44    1
    41    21    22    1
    42    22    23    1
    43    22    24    1
    44    22    25    1
    45    24    45    1
    46    24    46    1
    47    24    47    1
    48    25    48    1
    49    25    49    1
    50    26    27   ar
    51    26    50    1
    52    27    51    1
@<TRIPOS>SUBSTRUCTURE
     1 ZINC000588570917        1 TEMP              0 ****  ****    0 ROOT


##########                                Name:    ZINC000266467123
##########                DOCK_Rotatable_Bonds:                   9
##########                         Heavy_Atoms:                  25
##########                    Molecular_Weight:             337.421
##########                DOCK_Rotatable_Bonds:                   9
##########                       Formal_Charge:                0.02
##########                     HBond_Acceptors:                   5
##########                        HBond_Donors:                   3
##########                         Heavy_Atoms:                  25
##########                          Grid_Score:          -31.229677
##########                     Grid_vdw_energy:          -25.171282
##########                      Grid_es_energy:           -6.058395
##########           Internal_energy_repulsive:            9.923713

@<TRIPOS>MOLECULE
ZINC000266467123
 48 50 1 0 0
SMALL
USER_CHARGES


@<TRIPOS>ATOM
      1 C1         -7.8965    1.5862   66.9262 C.3     1  <0>        -0.1600
      2 C2         -7.0627    1.0463   65.7626 C.3     1  <0>         0.1500
      3 H3         -6.3321    0.3311   66.1403 H       1  <0>         0.1200
      4 N4         -6.3661    2.1549   65.1053 N.am    1  <0>        -0.7300
      5 C5         -5.1349    2.5164   65.5177 C.2     1  <0>         0.7100
      6 O6         -4.6018    1.9214   66.4342 O.2     1  <0>        -0.5900
      7 N7         -4.4948    3.5372   64.9140 N.am    1  <0>        -0.7100
      8 C8         -3.1558    3.9290   65.3611 C.3     1  <0>         0.1100
      9 H9         -3.0371    4.0531   66.4375 H       1  <0>         0.1400
     10 C10        -2.3501    4.8572   64.4499 C.3     1  <0>        -0.1900
     11 C11        -1.9611    3.3822   64.5772 C.3     1  <0>        -0.1500
     12 H12        -1.0564    3.1468   65.1377 H       1  <0>         0.1200
     13 C13        -2.2556    2.4686   63.3857 C.3     1  <0>        -0.0500
     14 C14        -1.0289    2.3655   62.5164 C.ar    1  <0>        -0.0800
     15 C15        -0.7969    1.2179   61.7816 C.ar    1  <0>        -0.1100
     16 C16         0.3282    1.1234   60.9842 C.ar    1  <0>        -0.1200
     17 C17         1.2213    2.1766   60.9212 C.ar    1  <0>        -0.1200
     18 C18         0.9888    3.3247   61.6553 C.ar    1  <0>        -0.1200
     19 C19        -0.1386    3.4210   62.4494 C.ar    1  <0>        -0.1200
     20 C20        -7.9681    0.3631   64.7704 C.2     1  <0>         0.5100
     21 O21        -8.3812   -0.7547   64.9959 O.2     1  <0>        -0.5100
     22 N22        -8.3188    0.9943   63.6324 N.am    1  <0>        -0.6700
     23 C23        -9.1595    0.3599   62.7111 C.ar    1  <0>         0.1400
     24 C24       -10.4526    0.8261   62.5133 C.ar    1  <0>        -0.1400
     25 C25       -11.2800    0.1977   61.6032 C.ar    1  <0>        -0.1000
     26 C26       -10.8221   -0.8947   60.8897 C.ar    1  <0>        -0.1300
     27 C27        -9.5352   -1.3616   61.0846 C.ar    1  <0>        -0.1000
     28 C28        -8.7006   -0.7336   61.9884 C.ar    1  <0>        -0.1200
     29 H29        -8.4148    0.7615   67.4153 H       1  <0>         0.0700
     30 H30        -7.2417    2.0805   67.6439 H       1  <0>         0.0800
     31 H31        -8.6271    2.3015   66.5485 H       1  <0>         0.0700
     32 H32        -6.7909    2.6287   64.3732 H       1  <0>         0.4100
     33 H33        -4.9206    4.0126   64.1836 H       1  <0>         0.4000
     34 H34        -2.8163    5.1763   63.5178 H       1  <0>         0.1000
     35 H35        -1.7012    5.5916   64.9268 H       1  <0>         0.1000
     36 H36        -2.5292    1.4773   63.7470 H       1  <0>         0.0800
     37 H37        -3.0790    2.8835   62.8045 H       1  <0>         0.0700
     38 H38        -1.4946    0.3950   61.8309 H       1  <0>         0.1200
     39 H39         0.5099    0.2264   60.4107 H       1  <0>         0.1200
     40 H40         2.1007    2.1026   60.2988 H       1  <0>         0.1200
     41 H41         1.6866    4.1475   61.6064 H       1  <0>         0.1200
     42 H42        -0.3203    4.3178   63.0229 H       1  <0>         0.1200
     43 H43        -7.9884    1.8882   63.4520 H       1  <0>         0.4100
     44 H44       -10.8110    1.6788   63.0708 H       1  <0>         0.1300
     45 H45       -12.2857    0.5598   61.4490 H       1  <0>         0.1300
     46 H46       -11.4711   -1.3845   60.1788 H       1  <0>         0.1200
     47 H47        -9.1808   -2.2154   60.5264 H       1  <0>         0.1300
     48 H48        -7.6956   -1.0987   62.1403 H       1  <0>         0.1400
@<TRIPOS>BOND
     1     1     2    1
     2     1    29    1
     3     1    30    1
     4     1    31    1
     5     2     3    1
     6     2     4    1
     7     2    20    1
     8     4     5   am
     9     4    32    1
    10     5     6    2
    11     5     7   am
    12     7     8    1
    13     7    33    1
    14     8     9    1
    15     8    11    1
    16     8    10    1
    17    10    11    1
    18    10    34    1
    19    10    35    1
    20    11    12    1
    21    11    13    1
    22    13    14    1
    23    13    36    1
    24    13    37    1
    25    14    19   ar
    26    14    15   ar
    27    15    16   ar
    28    15    38    1
    29    16    17   ar
    30    16    39    1
    31    17    18   ar
    32    17    40    1
    33    18    19   ar
    34    18    41    1
    35    19    42    1
    36    20    21    2
    37    20    22   am
    38    22    23    1
    39    22    43    1
    40    23    28   ar
    41    23    24   ar
    42    24    25   ar
    43    24    44    1
    44    25    26   ar
    45    25    45    1
    46    26    27   ar
    47    26    46    1
    48    27    28   ar
    49    27    47    1
    50    28    48    1
@<TRIPOS>SUBSTRUCTURE
     1 <0>         1 TEMP              0 ****  ****    0 ROOT


##########                                Name:    ZINC000474368324
##########                DOCK_Rotatable_Bonds:                   9
##########                         Heavy_Atoms:                  27
##########                    Molecular_Weight:             417.332
##########                DOCK_Rotatable_Bonds:                   9
##########                       Formal_Charge:        -1.63913e-07
##########                     HBond_Acceptors:                   8
##########                        HBond_Donors:                   1
##########                         Heavy_Atoms:                  27
##########                          Grid_Score:          -31.228327
##########                     Grid_vdw_energy:          -31.692963
##########                      Grid_es_energy:            0.464635
##########           Internal_energy_repulsive:           25.586706

@<TRIPOS>MOLECULE
ZINC000474368324
 53 54 1 0 0
SMALL
USER_CHARGES


@<TRIPOS>ATOM
      1 C1         -9.8889    3.8951   51.1603 C.3     1  ZINC000474368324   -0.1500
      2 C2         -9.1039    4.2351   49.8918 C.3     1  ZINC000474368324    0.0600
      3 O3         -7.8249    3.5481   49.9153 O.3     1  ZINC000474368324   -0.3300
      4 C4         -6.9028    4.0064   50.7764 C.2     1  ZINC000474368324    0.4700
      5 O5         -7.0747    5.0605   51.3413 O.2     1  ZINC000474368324   -0.5100
      6 C6         -5.6531    3.2061   51.0386 C.3     1  ZINC000474368324   -0.0400
      7 C7         -5.9952    1.7148   51.0473 C.3     1  ZINC000474368324    0.0600
      8 O8         -6.9723    1.4562   52.0574 O.3     1  ZINC000474368324   -0.3700
      9 C9         -7.3912    0.0917   52.1250 C.3     1  ZINC000474368324    0.0300
     10 C10        -4.6274    3.4871   49.9379 C.3     1  ZINC000474368324   -0.1200
     11 C11        -3.3719    2.6459   50.1886 C.3     1  ZINC000474368324    0.1100
     12 N12        -2.8862    2.9150   51.5489 N.am    1  ZINC000474368324   -0.6300
     13 C13        -1.6103    3.2941   51.7600 C.2     1  ZINC000474368324    0.7100
     14 O14        -1.2205    3.5138   52.8906 O.2     1  ZINC000474368324   -0.5800
     15 N15        -0.7663    3.4297   50.7180 N.am    1  ZINC000474368324   -0.7400
     16 C16         0.6206    3.8418   50.9475 C.3     1  ZINC000474368324    0.2000
     17 H17         0.6629    4.5142   51.8043 H       1  ZINC000474368324    0.1100
     18 C18         1.1502    4.5633   49.7066 C.3     1  ZINC000474368324   -0.1600
     19 C19         1.4674    2.6256   51.2211 C.ar    1  ZINC000474368324   -0.0700
     20 C20         1.0873    1.3931   50.7246 C.ar    1  ZINC000474368324   -0.1000
     21 C21         1.8639    0.2768   50.9747 C.ar    1  ZINC000474368324   -0.0900
     22 C22         3.0209    0.3922   51.7215 C.ar    1  ZINC000474368324   -0.1000
     23 C23         3.4029    1.6252   52.2194 C.ar    1  ZINC000474368324   -0.0300
     24 Cl24        4.8563    1.7706   53.1575 Cl      1  ZINC000474368324   -0.0400
     25 C25         2.6281    2.7438   51.9644 C.ar    1  ZINC000474368324   -0.0300
     26 Cl26        3.1063    4.2919   52.5879 Cl      1  ZINC000474368324   -0.0400
     27 C27        -3.8182    2.7633   52.6746 C.3     1  ZINC000474368324    0.1300
     28 C28        -5.0687    3.6032   52.3961 C.3     1  ZINC000474368324   -0.1200
     29 H29       -10.8490    4.4109   51.1426 H       1  ZINC000474368324    0.0800
     30 H30       -10.0554    2.8190   51.2071 H       1  ZINC000474368324    0.0700
     31 H31        -9.3215    4.2134   52.0349 H       1  ZINC000474368324    0.0700
     32 H32        -9.6713    3.9168   49.0172 H       1  ZINC000474368324    0.0700
     33 H33        -8.9375    5.3113   49.8450 H       1  ZINC000474368324    0.0700
     34 H34        -6.3937    1.4278   50.0743 H       1  ZINC000474368324    0.0700
     35 H35        -5.0949    1.1368   51.2562 H       1  ZINC000474368324    0.0600
     36 H36        -7.8294   -0.2016   51.1710 H       1  ZINC000474368324    0.0400
     37 H37        -6.5310   -0.5423   52.3399 H       1  ZINC000474368324    0.0400
     38 H38        -8.1328   -0.0220   52.9157 H       1  ZINC000474368324    0.0900
     39 H39        -5.0529    3.2259   48.9689 H       1  ZINC000474368324    0.1000
     40 H40        -4.3645    4.5448   49.9471 H       1  ZINC000474368324    0.0800
     41 H41        -3.6152    1.5879   50.0901 H       1  ZINC000474368324    0.0800
     42 H42        -2.6016    2.9147   49.4658 H       1  ZINC000474368324    0.0800
     43 H43        -1.0773    3.2544   49.8161 H       1  ZINC000474368324    0.3900
     44 H44         1.1080    3.8909   48.8496 H       1  ZINC000474368324    0.0600
     45 H45         0.5378    5.4430   49.5086 H       1  ZINC000474368324    0.0700
     46 H46         2.1822    4.8699   49.8773 H       1  ZINC000474368324    0.0700
     47 H47         0.1831    1.3018   50.1411 H       1  ZINC000474368324    0.1300
     48 H48         1.5658   -0.6860   50.5864 H       1  ZINC000474368324    0.1400
     49 H49         3.6269   -0.4803   51.9169 H       1  ZINC000474368324    0.1500
     50 H50        -4.0978    1.7149   52.7788 H       1  ZINC000474368324    0.0700
     51 H51        -3.3424    3.1096   53.5921 H       1  ZINC000474368324    0.1100
     52 H52        -4.8016    4.6598   52.3822 H       1  ZINC000474368324    0.0900
     53 H53        -5.8082    3.4247   53.1767 H       1  ZINC000474368324    0.0900
@<TRIPOS>BOND
     1     1     2    1
     2     1    29    1
     3     1    30    1
     4     1    31    1
     5     2     3    1
     6     2    32    1
     7     2    33    1
     8     3     4    1
     9     4     5    2
    10     4     6    1
    11     6    28    1
    12     6     7    1
    13     6    10    1
    14     7     8    1
    15     7    34    1
    16     7    35    1
    17     8     9    1
    18     9    36    1
    19     9    37    1
    20     9    38    1
    21    10    11    1
    22    10    39    1
    23    10    40    1
    24    11    12    1
    25    11    41    1
    26    11    42    1
    27    12    13   am
    28    12    27    1
    29    13    14    2
    30    13    15   am
    31    15    16    1
    32    15    43    1
    33    16    17    1
    34    16    18    1
    35    16    19    1
    36    18    44    1
    37    18    45    1
    38    18    46    1
    39    19    25   ar
    40    19    20   ar
    41    20    21   ar
    42    20    47    1
    43    21    22   ar
    44    21    48    1
    45    22    23   ar
    46    22    49    1
    47    23    24    1
    48    23    25   ar
    49    25    26    1
    50    27    28    1
    51    27    50    1
    52    27    51    1
    53    28    52    1
    54    28    53    1
@<TRIPOS>SUBSTRUCTURE
     1 ZINC000474368324        1 TEMP              0 ****  ****    0 ROOT


##########                                Name:    ZINC000624498741
##########                DOCK_Rotatable_Bonds:                   7
##########                         Heavy_Atoms:                  27
##########                    Molecular_Weight:             379.339
##########                DOCK_Rotatable_Bonds:                   7
##########                       Formal_Charge:           0.0300003
##########                     HBond_Acceptors:                   9
##########                        HBond_Donors:                   0
##########                         Heavy_Atoms:                  27
##########                          Grid_Score:          -31.215111
##########                     Grid_vdw_energy:          -30.542747
##########                      Grid_es_energy:           -0.672363
##########           Internal_energy_repulsive:           10.500322

@<TRIPOS>MOLECULE
ZINC000624498741
 43 45 1 0 0
SMALL
USER_CHARGES


@<TRIPOS>ATOM
      1 C1        -10.0952    2.4157   53.7960 C.3     1  ZINC000624498741   -0.1100
      2 C2         -9.1357    1.5737   52.9950 C.ar    1  ZINC000624498741   -0.0900
      3 C3         -8.0485    2.1606   52.3863 C.ar    1  ZINC000624498741   -0.0400
      4 C4         -7.1594    1.3791   51.6443 C.ar    1  ZINC000624498741   -0.0500
      5 C5         -5.9923    2.0042   50.9905 C.2     1  ZINC000624498741    0.2300
      6 N6         -4.8286    2.2842   51.5518 N.2     1  ZINC000624498741   -0.4700
      7 C7         -4.0854    2.8382   50.5813 C.2     1  ZINC000624498741    0.1800
      8 C8         -2.6685    3.3325   50.7184 C.3     1  ZINC000624498741   -0.0300
      9 C9         -2.0750    2.8216   52.0328 C.3     1  ZINC000624498741   -0.1300
     10 C10        -0.7570    3.5464   52.3132 C.3     1  ZINC000624498741    0.0900
     11 N11         0.2473    3.1310   51.3308 N.am    1  ZINC000624498741   -0.5000
     12 C12         0.7258    1.8608   51.3563 C.2     1  ZINC000624498741    0.1300
     13 C13         1.6542    1.4540   50.4593 C.2     1  ZINC000624498741   -0.2300
     14 C14         2.1308    2.3485   49.4908 C.2     1  ZINC000624498741   -0.0200
     15 C15         1.6486    3.6242   49.4666 C.2     1  ZINC000624498741   -0.2400
     16 C16         0.6813    4.0119   50.4095 C.2     1  ZINC000624498741    0.5100
     17 O17         0.2412    5.1504   50.3991 O.2     1  ZINC000624498741   -0.5500
     18 N18        -4.8088    2.8707   49.5011 N.2     1  ZINC000624498741   -0.3700
     19 O19        -5.9043    2.3937   49.7089 O.3     1  ZINC000624498741    0.0900
     20 C20        -7.3771    0.0048   51.5231 C.ar    1  ZINC000624498741   -0.0200
     21 C21        -8.4670   -0.5747   52.1351 C.ar    1  ZINC000624498741   -0.1900
     22 C22        -9.3459    0.2052   52.8764 C.ar    1  ZINC000624498741    0.1300
     23 O23       -10.4188   -0.3697   53.4779 O.3     1  ZINC000624498741   -0.3000
     24 C24       -11.4554   -0.8598   52.6251 C.3     1  ZINC000624498741    0.6000
     25 F25       -11.1308   -2.1492   52.1901 F       1  ZINC000624498741   -0.1600
     26 F26       -12.6624   -0.8961   53.3315 F       1  ZINC000624498741   -0.1300
     27 F27       -11.5879   -0.0140   51.5187 F       1  ZINC000624498741   -0.1600
     28 H28        -9.7623    2.4589   54.8330 H       1  ZINC000624498741    0.0800
     29 H29       -10.1267    3.4237   53.3823 H       1  ZINC000624498741    0.0800
     30 H30       -11.0905    1.9736   53.7520 H       1  ZINC000624498741    0.0800
     31 H31        -7.8838    3.2237   52.4820 H       1  ZINC000624498741    0.1500
     32 H32        -2.0727    2.9640   49.8833 H       1  ZINC000624498741    0.1000
     33 H33        -2.6620    4.4225   50.7162 H       1  ZINC000624498741    0.1000
     34 H34        -2.7750    3.0131   52.8462 H       1  ZINC000624498741    0.0800
     35 H35        -1.8912    1.7500   51.9563 H       1  ZINC000624498741    0.0800
     36 H36        -0.9120    4.6229   52.2415 H       1  ZINC000624498741    0.1100
     37 H37        -0.4104    3.2952   53.3157 H       1  ZINC000624498741    0.1000
     38 H38         0.3620    1.1676   52.1002 H       1  ZINC000624498741    0.1600
     39 H39         2.0279    0.4411   50.4900 H       1  ZINC000624498741    0.1500
     40 H40         2.8719    2.0312   48.7721 H       1  ZINC000624498741    0.1400
     41 H41         2.0035    4.3278   48.7280 H       1  ZINC000624498741    0.1500
     42 H42        -6.6923   -0.6027   50.9500 H       1  ZINC000624498741    0.1500
     43 H43        -8.6363   -1.6373   52.0416 H       1  ZINC000624498741    0.1500
@<TRIPOS>BOND
     1     1     2    1
     2     1    28    1
     3     1    29    1
     4     1    30    1
     5     2    22   ar
     6     2     3   ar
     7     3     4   ar
     8     3    31    1
     9     4     5    1
    10     4    20   ar
    11     5    19    1
    12     5     6    2
    13     6     7    1
    14     7     8    1
    15     7    18    2
    16     8     9    1
    17     8    32    1
    18     8    33    1
    19     9    10    1
    20     9    34    1
    21     9    35    1
    22    10    11    1
    23    10    36    1
    24    10    37    1
    25    11    16   am
    26    11    12    1
    27    12    13    2
    28    12    38    1
    29    13    14    1
    30    13    39    1
    31    14    15    2
    32    14    40    1
    33    15    16    1
    34    15    41    1
    35    16    17    2
    36    18    19    1
    37    20    21   ar
    38    20    42    1
    39    21    22   ar
    40    21    43    1
    41    22    23    1
    42    23    24    1
    43    24    25    1
    44    24    26    1
    45    24    27    1
@<TRIPOS>SUBSTRUCTURE
     1 ZINC000624498741        1 TEMP              0 ****  ****    0 ROOT


##########                                Name:    ZINC000771225867
##########                DOCK_Rotatable_Bonds:                   9
##########                         Heavy_Atoms:                  23
##########                    Molecular_Weight:             355.802
##########                DOCK_Rotatable_Bonds:                   9
##########                       Formal_Charge:        -3.12924e-07
##########                     HBond_Acceptors:                   9
##########                        HBond_Donors:                   3
##########                         Heavy_Atoms:                  23
##########                          Grid_Score:          -31.208179
##########                     Grid_vdw_energy:          -26.250244
##########                      Grid_es_energy:           -4.957935
##########           Internal_energy_repulsive:           10.223717

@<TRIPOS>MOLECULE
ZINC000771225867
 37 38 1 0 0
SMALL
USER_CHARGES


@<TRIPOS>ATOM
      1 C1        -17.3699   -3.2035   59.5504 C.3     1  ZINC000771225867    0.0400
      2 O2        -16.0508   -3.0223   59.0312 O.3     1  ZINC000771225867   -0.3600
      3 C3        -15.1253   -2.5157   59.8729 C.2     1  ZINC000771225867    0.5500
      4 O4        -15.4267   -2.2538   61.0226 O.2     1  ZINC000771225867   -0.4900
      5 C5        -13.8043   -2.2888   59.4183 C.2     1  ZINC000771225867   -0.3400
      6 C6        -13.3124   -2.5997   58.1775 C.2     1  ZINC000771225867    0.2700
      7 Cl7       -14.2735   -3.3437   56.9380 Cl      1  ZINC000771225867    0.0400
      8 N8        -12.0527   -2.2848   58.0111 N.2     1  ZINC000771225867   -0.5500
      9 C9        -11.4382   -1.7301   59.0166 C.2     1  ZINC000771225867    0.3400
     10 N10       -10.1175   -1.3375   59.0092 N.pl3   1  ZINC000771225867   -0.6700
     11 C11        -9.3008   -1.4912   60.2157 C.3     1  ZINC000771225867    0.1700
     12 C12        -9.3476   -0.2174   61.0196 C.ar    1  ZINC000771225867   -0.0800
     13 C13        -9.4102    1.0041   60.3753 C.ar    1  ZINC000771225867   -0.1300
     14 C14        -9.4532    2.1747   61.1101 C.ar    1  ZINC000771225867   -0.0800
     15 C15        -9.4337    2.1262   62.4904 C.ar    1  ZINC000771225867   -0.2000
     16 C16        -9.3710    0.9015   63.1396 C.ar    1  ZINC000771225867    0.1300
     17 O17        -9.3521    0.8511   64.4975 O.3     1  ZINC000771225867   -0.2900
     18 C18        -8.1597    0.3585   65.1119 C.3     1  ZINC000771225867    0.0400
     19 C19        -8.4837   -0.1696   66.4856 C.2     1  ZINC000771225867    0.5200
     20 N20        -9.2607    0.5507   67.3187 N.am    1  ZINC000771225867   -0.8500
     21 O21        -8.0453   -1.2430   66.8415 O.2     1  ZINC000771225867   -0.5200
     22 C22        -9.3335   -0.2716   62.4002 C.ar    1  ZINC000771225867   -0.1200
     23 S23       -12.5000   -1.5492   60.3435 S.3     1  ZINC000771225867    0.2200
     24 H24       -17.3363   -3.8899   60.3964 H       1  ZINC000771225867    0.0600
     25 H25       -17.7666   -2.2425   59.8778 H       1  ZINC000771225867    0.0600
     26 H26       -18.0128   -3.6161   58.7729 H       1  ZINC000771225867    0.1000
     27 H27        -9.7284   -0.9592   58.2052 H       1  ZINC000771225867    0.4200
     28 H28        -9.6901   -2.3140   60.8155 H       1  ZINC000771225867    0.0900
     29 H29        -8.2702   -1.7043   59.9322 H       1  ZINC000771225867    0.0900
     30 H30        -9.4251    1.0441   59.2962 H       1  ZINC000771225867    0.1300
     31 H31        -9.5018    3.1277   60.6044 H       1  ZINC000771225867    0.1300
     32 H32        -9.4671    3.0408   63.0638 H       1  ZINC000771225867    0.1300
     33 H33        -7.7421   -0.4435   64.5034 H       1  ZINC000771225867    0.1000
     34 H34        -7.4334    1.1670   65.1955 H       1  ZINC000771225867    0.1000
     35 H35        -9.4701    0.2101   68.2024 H       1  ZINC000771225867    0.4000
     36 H36        -9.6104    1.4096   67.0344 H       1  ZINC000771225867    0.4100
     37 H37        -9.2847   -1.2261   62.9031 H       1  ZINC000771225867    0.1400
@<TRIPOS>BOND
     1     1     2    1
     2     1    24    1
     3     1    25    1
     4     1    26    1
     5     2     3    1
     6     3     4    2
     7     3     5    1
     8     5    23    1
     9     5     6    2
    10     6     7    1
    11     6     8    1
    12     8     9    2
    13     9    10    1
    14     9    23    1
    15    10    11    1
    16    10    27    1
    17    11    12    1
    18    11    28    1
    19    11    29    1
    20    12    22   ar
    21    12    13   ar
    22    13    14   ar
    23    13    30    1
    24    14    15   ar
    25    14    31    1
    26    15    16   ar
    27    15    32    1
    28    16    17    1
    29    16    22   ar
    30    17    18    1
    31    18    19    1
    32    18    33    1
    33    18    34    1
    34    19    20   am
    35    19    21    2
    36    20    35    1
    37    20    36    1
    38    22    37    1
@<TRIPOS>SUBSTRUCTURE
     1 ZINC000771225867        1 TEMP              0 ****  ****    0 ROOT


##########                                Name:    ZINC000444811358
##########                DOCK_Rotatable_Bonds:                  11
##########                         Heavy_Atoms:                  27
##########                    Molecular_Weight:             374.455
##########                DOCK_Rotatable_Bonds:                  11
##########                       Formal_Charge:          0.00999966
##########                     HBond_Acceptors:                   6
##########                        HBond_Donors:                   2
##########                         Heavy_Atoms:                  27
##########                          Grid_Score:          -31.176186
##########                     Grid_vdw_energy:          -31.088306
##########                      Grid_es_energy:           -0.087879
##########           Internal_energy_repulsive:           20.500481

@<TRIPOS>MOLECULE
ZINC000444811358
 54 55 1 0 0
SMALL
USER_CHARGES


@<TRIPOS>ATOM
      1 C1        -14.3835   -5.1898   56.2549 C.3     1  ZINC000444811358   -0.1100
      2 C2        -13.7158   -3.8416   56.1682 C.ar    1  ZINC000444811358   -0.1300
      3 C3        -14.2615   -2.8513   55.3732 C.ar    1  ZINC000444811358   -0.0700
      4 C4        -13.6518   -1.6144   55.2909 C.ar    1  ZINC000444811358   -0.1500
      5 C5        -12.4892   -1.3648   56.0082 C.ar    1  ZINC000444811358    0.1700
      6 N6        -11.8706   -0.1125   55.9264 N.am    1  ZINC000444811358   -0.6800
      7 C7        -11.0530    0.1690   54.8925 C.2     1  ZINC000444811358    0.5200
      8 O8        -10.8536   -0.6632   54.0330 O.2     1  ZINC000444811358   -0.5000
      9 C9        -10.3867    1.5179   54.8044 C.3     1  ZINC000444811358    0.0200
     10 N10        -8.9840    1.3457   54.4035 N.3     1  ZINC000444811358   -0.5000
     11 C11        -8.8489    1.3603   52.9408 C.3     1  ZINC000444811358    0.0200
     12 C12        -7.8504    0.2840   52.5101 C.3     1  ZINC000444811358    0.1100
     13 H13        -7.3540   -0.1242   53.3904 H       1  ZINC000444811358    0.1200
     14 O14        -8.5432   -0.7619   51.8259 O.3     1  ZINC000444811358   -0.5400
     15 C15        -6.8071    0.9007   51.5762 C.3     1  ZINC000444811358    0.0300
     16 O16        -5.8769    1.6688   52.3422 O.3     1  ZINC000444811358   -0.3000
     17 C17        -4.8635    2.2671   51.6627 C.ar    1  ZINC000444811358    0.1300
     18 C18        -3.8193    2.8631   52.3548 C.ar    1  ZINC000444811358   -0.2100
     19 C19        -2.7901    3.4701   51.6617 C.ar    1  ZINC000444811358   -0.0800
     20 C20        -2.8002    3.4844   50.2791 C.ar    1  ZINC000444811358   -0.1600
     21 C21        -3.8399    2.8915   49.5869 C.ar    1  ZINC000444811358   -0.0800
     22 C22        -4.8684    2.2777   50.2753 C.ar    1  ZINC000444811358   -0.1500
     23 C23        -8.1305    2.3695   55.0212 C.3     1  ZINC000444811358    0.0700
     24 C24        -8.7964    3.7401   54.8826 C.3     1  ZINC000444811358   -0.1400
     25 C25        -7.9359    2.0447   56.5036 C.3     1  ZINC000444811358   -0.1900
     26 C26       -11.9419   -2.3601   56.8069 C.ar    1  ZINC000444811358   -0.1500
     27 C27       -12.5592   -3.5951   56.8898 C.ar    1  ZINC000444811358    0.1200
     28 F28       -12.0283   -4.5646   57.6664 F       1  ZINC000444811358   -0.1300
     29 H29       -15.1092   -5.1841   57.0682 H       1  ZINC000444811358    0.0700
     30 H30       -14.8925   -5.4043   55.3153 H       1  ZINC000444811358    0.0700
     31 H31       -13.6318   -5.9560   56.4442 H       1  ZINC000444811358    0.0700
     32 H32       -15.1658   -3.0450   54.8152 H       1  ZINC000444811358    0.1400
     33 H33       -14.0790   -0.8419   54.6688 H       1  ZINC000444811358    0.1300
     34 H34       -12.0300    0.5531   56.6137 H       1  ZINC000444811358    0.4100
     35 H35       -10.9031    2.1307   54.0656 H       1  ZINC000444811358    0.1300
     36 H36       -10.4291    2.0082   55.7770 H       1  ZINC000444811358    0.0700
     37 H37        -9.8183    1.1602   52.4844 H       1  ZINC000444811358    0.0500
     38 H38        -8.4905    2.3381   52.6187 H       1  ZINC000444811358    0.1000
     39 H39        -8.9290   -0.4913   50.9814 H       1  ZINC000444811358    0.3700
     40 H40        -6.2766    0.1073   51.0497 H       1  ZINC000444811358    0.0600
     41 H41        -7.3039    1.5475   50.8531 H       1  ZINC000444811358    0.0700
     42 H42        -3.8113    2.8528   53.4348 H       1  ZINC000444811358    0.1300
     43 H43        -1.9770    3.9342   52.2000 H       1  ZINC000444811358    0.1200
     44 H44        -1.9948    3.9598   49.7390 H       1  ZINC000444811358    0.1200
     45 H45        -3.8457    2.9042   48.5069 H       1  ZINC000444811358    0.1300
     46 H46        -5.6803    1.8147   49.7342 H       1  ZINC000444811358    0.1300
     47 H47        -7.1616    2.3842   54.5222 H       1  ZINC000444811358    0.0900
     48 H48        -9.7005    3.7679   55.4909 H       1  ZINC000444811358    0.0500
     49 H49        -8.1076    4.5145   55.2200 H       1  ZINC000444811358    0.0600
     50 H50        -9.0556    3.9142   53.8383 H       1  ZINC000444811358    0.0700
     51 H51        -7.4615    1.0683   56.6024 H       1  ZINC000444811358    0.0500
     52 H52        -7.3027    2.8043   56.9619 H       1  ZINC000444811358    0.0700
     53 H53        -8.9048    2.0300   57.0027 H       1  ZINC000444811358    0.0600
     54 H54       -11.0376   -2.1690   57.3656 H       1  ZINC000444811358    0.1500
@<TRIPOS>BOND
     1     1     2    1
     2     1    29    1
     3     1    30    1
     4     1    31    1
     5     2    27   ar
     6     2     3   ar
     7     3     4   ar
     8     3    32    1
     9     4     5   ar
    10     4    33    1
    11     5     6    1
    12     5    26   ar
    13     6     7   am
    14     6    34    1
    15     7     8    2
    16     7     9    1
    17     9    10    1
    18     9    35    1
    19     9    36    1
    20    10    11    1
    21    10    23    1
    22    11    12    1
    23    11    37    1
    24    11    38    1
    25    12    13    1
    26    12    14    1
    27    12    15    1
    28    14    39    1
    29    15    16    1
    30    15    40    1
    31    15    41    1
    32    16    17    1
    33    17    22   ar
    34    17    18   ar
    35    18    19   ar
    36    18    42    1
    37    19    20   ar
    38    19    43    1
    39    20    21   ar
    40    20    44    1
    41    21    22   ar
    42    21    45    1
    43    22    46    1
    44    23    24    1
    45    23    25    1
    46    23    47    1
    47    24    48    1
    48    24    49    1
    49    24    50    1
    50    25    51    1
    51    25    52    1
    52    25    53    1
    53    26    27   ar
    54    26    54    1
    55    27    28    1
@<TRIPOS>SUBSTRUCTURE
     1 ZINC000444811358        1 TEMP              0 ****  ****    0 ROOT


##########                                Name:    ZINC000011972961
##########                DOCK_Rotatable_Bonds:                   6
##########                         Heavy_Atoms:                  28
##########                    Molecular_Weight:             397.501
##########                DOCK_Rotatable_Bonds:                   6
##########                       Formal_Charge:                   0
##########                     HBond_Acceptors:                   8
##########                        HBond_Donors:                   1
##########                         Heavy_Atoms:                  28
##########                          Grid_Score:          -31.175451
##########                     Grid_vdw_energy:          -31.175451
##########                      Grid_es_energy:            0.000000
##########           Internal_energy_repulsive:           20.207899

@<TRIPOS>MOLECULE
ZINC000011972961
 51 54 1 0 0
SMALL
USER_CHARGES


@<TRIPOS>ATOM
      1 C1         -3.1580    4.4088   54.3364 C.3        0b      0.0000
      2 C2         -1.6653    4.2535   54.2003 C.2        0b      0.0000
      3 C3         -0.8171    4.6263   55.1671 C.2        0b      0.0000
      4 C4         -1.2198    5.2180   56.4488 C.2        0b      0.0000
      5 O5         -1.3820    6.4205   56.5395 O.2        0b      0.0000
      6 N6         -1.4098    4.4293   57.5250 N.am       0b      0.0000
      7 C7         -1.8116    5.0199   58.8042 C.3        0b      0.0000
      8 C8         -1.2146    2.9815   57.4158 C.3        0b      0.0000
      9 H9         -1.2307    2.6730   56.3705 H          0b      0.0000
     10 C10         0.1176    2.5624   58.0839 C.3        0b      0.0000
     11 C11        -0.3559    2.0835   59.4800 C.3        0b      0.0000
     12 O12        -1.6141    1.4314   59.2035 O.3        0b      0.0000
     13 C13        -2.2952    2.2296   58.2168 C.3        0b      0.0000
     14 S14         0.8424    4.3094   54.6909 S.3        0b      0.0000
     15 C15         0.3254    3.6579   53.1415 C.ar       0b      0.0000
     16 N16         1.0245    3.1593   52.1155 N.ar       0b      0.0000
     17 C17         0.4218    2.7199   51.0345 C.ar       0b      0.0000
     18 N18        -0.8918    2.7454   50.9014 N.ar       0b      0.0000
     19 C19        -1.6714    3.2198   51.8610 C.ar       0b      0.0000
     20 N20        -3.0426    3.2389   51.7050 N.pl3      0b      0.0000
     21 C21        -3.6508    2.6698   50.4998 C.3        0b      0.0000
     22 C22        -5.1309    2.4921   50.7200 C.ar       0b      0.0000
     23 N23        -5.5800    1.3768   51.2614 N.ar       0b      0.0000
     24 C24        -6.8664    1.1777   51.4732 C.ar       0b      0.0000
     25 C25        -7.3274   -0.1152   52.0952 C.3        0b      0.0000
     26 C26        -7.7964    2.1410   51.1318 C.ar       0b      0.0000
     27 C27        -7.3618    3.3272   50.5601 C.ar       0b      0.0000
     28 C28        -6.0016    3.5025   50.3572 C.ar       0b      0.0000
     29 C29        -1.0731    3.7048   53.0581 C.ar       0b      0.0000
     30 H30        -3.6200    3.4247   54.4162 H          0b      0.0000
     31 H31        -3.3830    4.9894   55.2311 H          0b      0.0000
     32 H32        -3.5511    4.9246   53.4603 H          0b      0.0000
     33 H33        -2.8090    5.4488   58.7090 H          0b      0.0000
     34 H34        -1.8198    4.2482   59.5739 H          0b      0.0000
     35 H35        -1.1047    5.8020   59.0813 H          0b      0.0000
     36 H36         0.5900    1.7490   57.5332 H          0b      0.0000
     37 H37         0.7927    3.4136   58.1731 H          0b      0.0000
     38 H38         0.3570    1.3773   59.9056 H          0b      0.0000
     39 H39        -0.5021    2.9324   60.1478 H          0b      0.0000
     40 H40        -2.9553    2.9437   58.7091 H          0b      0.0000
     41 H41        -2.8720    1.5856   57.5528 H          0b      0.0000
     42 H42         1.0206    2.3249   50.2272 H          0b      0.0000
     43 H43        -3.6036    3.6291   52.3935 H          0b      0.0000
     44 H44        -3.4868    3.3423   49.6578 H          0b      0.0000
     45 H45        -3.1966    1.7023   50.2858 H          0b      0.0000
     46 H46        -7.3493   -0.0091   53.1798 H          0b      0.0000
     47 H47        -8.3269   -0.3563   51.7335 H          0b      0.0000
     48 H48        -6.6393   -0.9153   51.8223 H          0b      0.0000
     49 H49        -8.8485    1.9721   51.3078 H          0b      0.0000
     50 H50        -8.0659    4.0980   50.2830 H          0b      0.0000
     51 H51        -5.6277    4.4139   49.9146 H          0b      0.0000
@<TRIPOS>BOND
     1     1     2    1
     2     1    30    1
     3     1    31    1
     4     1    32    1
     5     2    29    1
     6     2     3    2
     7     3     4    1
     8     3    14    1
     9     4     5    2
    10     4     6   am
    11     6     7    1
    12     6     8    1
    13     7    33    1
    14     7    34    1
    15     7    35    1
    16     8     9    1
    17     8    13    1
    18     8    10    1
    19    10    11    1
    20    10    36    1
    21    10    37    1
    22    11    12    1
    23    11    38    1
    24    11    39    1
    25    12    13    1
    26    13    40    1
    27    13    41    1
    28    14    15    1
    29    15    29   ar
    30    15    16   ar
    31    16    17   ar
    32    17    18   ar
    33    17    42    1
    34    18    19   ar
    35    19    20    1
    36    19    29   ar
    37    20    21    1
    38    20    43    1
    39    21    22    1
    40    21    44    1
    41    21    45    1
    42    22    28   ar
    43    22    23   ar
    44    23    24   ar
    45    24    25    1
    46    24    26   ar
    47    25    46    1
    48    25    47    1
    49    25    48    1
    50    26    27   ar
    51    26    49    1
    52    27    28   ar
    53    27    50    1
    54    28    51    1
@<TRIPOS>SUBSTRUCTURE
     1 0b        1 TEMP              0 ****  ****    0 ROOT


##########                                Name:    ZINC000429196987
##########                DOCK_Rotatable_Bonds:                   7
##########                         Heavy_Atoms:                  28
##########                    Molecular_Weight:             403.505
##########                DOCK_Rotatable_Bonds:                   7
##########                       Formal_Charge:          -0.0399997
##########                     HBond_Acceptors:                   9
##########                        HBond_Donors:                   1
##########                         Heavy_Atoms:                  28
##########                          Grid_Score:          -31.174168
##########                     Grid_vdw_energy:          -30.996906
##########                      Grid_es_energy:           -0.177262
##########           Internal_energy_repulsive:           12.851611

@<TRIPOS>MOLECULE
ZINC000429196987
 53 55 1 0 0
SMALL
USER_CHARGES


@<TRIPOS>ATOM
      1 C1        -11.4356   -2.7921   55.8500 C.3     1  ZINC000429196987    0.0800
      2 N2        -11.6825   -1.3494   55.9144 N.am    1  ZINC000429196987   -0.6300
      3 C3        -12.2865   -0.6580   54.7728 C.3     1  ZINC000429196987    0.1600
      4 C4        -11.2009   -0.0574   53.9176 C.ar    1  ZINC000429196987   -0.0600
      5 C5        -10.9377    1.2980   53.9858 C.ar    1  ZINC000429196987   -0.1300
      6 C6         -9.9418    1.8489   53.2012 C.ar    1  ZINC000429196987   -0.0300
      7 C7         -9.2089    1.0446   52.3487 C.ar    1  ZINC000429196987   -0.6600
      8 S8         -7.9399    1.7470   51.3483 S.o2    1  ZINC000429196987    2.5000
      9 C9         -6.7460    2.4191   52.5372 C.3     1  ZINC000429196987   -0.6500
     10 O10        -7.3840    0.6370   50.6569 O.2     1  ZINC000429196987   -0.9400
     11 O11        -8.5890    2.7976   50.6453 O.2     1  ZINC000429196987   -0.9400
     12 C12        -9.4712   -0.3110   52.2815 C.ar    1  ZINC000429196987   -0.0300
     13 C13       -10.4645   -0.8627   53.0689 C.ar    1  ZINC000429196987   -0.1100
     14 C14       -11.3541   -0.6584   57.0239 C.2     1  ZINC000429196987    0.7100
     15 O15       -11.5604    0.5385   57.0780 O.2     1  ZINC000429196987   -0.5800
     16 N16       -10.7969   -1.2943   58.0736 N.am    1  ZINC000429196987   -0.7400
     17 C17       -10.4382   -0.5428   59.2789 C.3     1  ZINC000429196987    0.1600
     18 C18       -11.5886   -0.6132   60.2871 C.3     1  ZINC000429196987   -0.1300
     19 C19       -11.1844    0.1218   61.5671 C.3     1  ZINC000429196987    0.0700
     20 N20        -9.9783   -0.4992   62.1294 N.3     1  ZINC000429196987   -0.4700
     21 C21        -9.6585    0.0596   63.3619 C.ar    1  ZINC000429196987    0.2500
     22 C22        -8.5703   -0.4224   64.0884 C.ar    1  ZINC000429196987   -0.1300
     23 C23        -8.2936    0.1685   65.3112 C.ar    1  ZINC000429196987   -0.1000
     24 C24        -9.1156    1.2024   65.7370 C.ar    1  ZINC000429196987    0.0200
     25 N25       -10.1244    1.5952   64.9849 N.ar    1  ZINC000429196987   -0.2200
     26 N26       -10.3832    1.0563   63.8491 N.ar    1  ZINC000429196987   -0.2800
     27 C27        -8.8473   -0.4017   61.1980 C.3     1  ZINC000429196987    0.0600
     28 C28        -9.1817   -1.1522   59.9069 C.3     1  ZINC000429196987   -0.1200
     29 H29       -10.4391   -2.9725   55.4467 H       1  ZINC000429196987    0.0600
     30 H30       -11.5049   -3.2177   56.8511 H       1  ZINC000429196987    0.0700
     31 H31       -12.1790   -3.2595   55.2043 H       1  ZINC000429196987    0.0800
     32 H32       -12.8636   -1.3689   54.1814 H       1  ZINC000429196987    0.1000
     33 H33       -12.9442    0.1328   55.1335 H       1  ZINC000429196987    0.0900
     34 H34       -11.5102    1.9264   54.6518 H       1  ZINC000429196987    0.1300
     35 H35        -9.7365    2.9079   53.2539 H       1  ZINC000429196987    0.1400
     36 H36        -6.3684    1.6139   53.1676 H       1  ZINC000429196987    0.1300
     37 H37        -5.9169    2.8786   51.9993 H       1  ZINC000429196987    0.1300
     38 H38        -7.2354    3.1685   53.1593 H       1  ZINC000429196987    0.1300
     39 H39        -8.8984   -0.9396   51.6158 H       1  ZINC000429196987    0.1400
     40 H40       -10.6694   -1.9217   53.0164 H       1  ZINC000429196987    0.1400
     41 H41       -10.6334   -2.2495   58.0310 H       1  ZINC000429196987    0.4000
     42 H42       -10.2462    0.4975   59.0160 H       1  ZINC000429196987    0.0900
     43 H43       -12.4748   -0.1422   59.8614 H       1  ZINC000429196987    0.0800
     44 H44       -11.8058   -1.6557   60.5192 H       1  ZINC000429196987    0.0700
     45 H45       -10.9807    1.1674   61.3366 H       1  ZINC000429196987    0.0600
     46 H46       -11.9958    0.0613   62.2923 H       1  ZINC000429196987    0.0900
     47 H47        -7.9624   -1.2310   63.7104 H       1  ZINC000429196987    0.1500
     48 H48        -7.4630   -0.1659   65.9150 H       1  ZINC000429196987    0.1500
     49 H49        -8.9289    1.6852   66.6850 H       1  ZINC000429196987    0.1700
     50 H50        -8.6545    0.6465   60.9693 H       1  ZINC000429196987    0.0500
     51 H51        -7.9613   -0.8424   61.6551 H       1  ZINC000429196987    0.0900
     52 H52        -9.3611   -2.2033   60.1330 H       1  ZINC000429196987    0.0800
     53 H53        -8.3482   -1.0665   59.2098 H       1  ZINC000429196987    0.0800
@<TRIPOS>BOND
     1     1     2    1
     2     1    29    1
     3     1    30    1
     4     1    31    1
     5     2     3    1
     6     2    14   am
     7     3     4    1
     8     3    32    1
     9     3    33    1
    10     4    13   ar
    11     4     5   ar
    12     5     6   ar
    13     5    34    1
    14     6     7   ar
    15     6    35    1
    16     7     8    1
    17     7    12   ar
    18     8     9    1
    19     8    10    2
    20     8    11    2
    21     9    36    1
    22     9    37    1
    23     9    38    1
    24    12    13   ar
    25    12    39    1
    26    13    40    1
    27    14    15    2
    28    14    16   am
    29    16    17    1
    30    16    41    1
    31    17    28    1
    32    17    18    1
    33    17    42    1
    34    18    19    1
    35    18    43    1
    36    18    44    1
    37    19    20    1
    38    19    45    1
    39    19    46    1
    40    20    21    1
    41    20    27    1
    42    21    26   ar
    43    21    22   ar
    44    22    23   ar
    45    22    47    1
    46    23    24   ar
    47    23    48    1
    48    24    25   ar
    49    24    49    1
    50    25    26   ar
    51    27    28    1
    52    27    50    1
    53    27    51    1
    54    28    52    1
    55    28    53    1
@<TRIPOS>SUBSTRUCTURE
     1 ZINC000429196987        1 TEMP              0 ****  ****    0 ROOT


##########                                Name:    ZINC001074839487
##########                DOCK_Rotatable_Bonds:                   7
##########                         Heavy_Atoms:                  25
##########                    Molecular_Weight:             344.454
##########                DOCK_Rotatable_Bonds:                   7
##########                       Formal_Charge:          -0.0500005
##########                     HBond_Acceptors:                   5
##########                        HBond_Donors:                   1
##########                         Heavy_Atoms:                  25
##########                          Grid_Score:          -31.166468
##########                     Grid_vdw_energy:          -30.614897
##########                      Grid_es_energy:           -0.551572
##########           Internal_energy_repulsive:           91.614494

@<TRIPOS>MOLECULE
ZINC001074839487
 53 55 1 0 0
SMALL
USER_CHARGES


@<TRIPOS>ATOM
      1 C1         -0.3935    5.3971   51.3823 C.3     1  ZINC001074839487   -0.1500
      2 C2         -0.8970    4.1414   50.6678 C.3     1  ZINC001074839487   -0.1300
      3 C3         -1.5654    3.2109   51.6819 C.3     1  ZINC001074839487   -0.1100
      4 C4         -2.9853    3.7038   51.9678 C.3     1  ZINC001074839487   -0.1400
      5 C5         -3.9520    3.0187   51.0365 C.2     1  ZINC001074839487    0.5100
      6 O6         -3.6620    2.8622   49.8693 O.2     1  ZINC001074839487   -0.5400
      7 N7         -5.1387    2.5797   51.5008 N.am    1  ZINC001074839487   -0.7300
      8 C8         -6.0790    1.9152   50.5951 C.3     1  ZINC001074839487    0.1400
      9 H9         -5.5440    1.5552   49.7163 H       1  ZINC001074839487    0.0900
     10 C10        -6.7312    0.7326   51.3151 C.3     1  ZINC001074839487   -0.1500
     11 C11        -7.4532    1.2380   52.5681 C.3     1  ZINC001074839487    0.0700
     12 N12        -8.3919    2.2987   52.1775 N.am    1  ZINC001074839487   -0.6000
     13 C13        -9.6925    2.2262   52.5234 C.2     1  ZINC001074839487    0.5600
     14 O14       -10.4591    3.1103   52.1944 O.2     1  ZINC001074839487   -0.5200
     15 C15       -10.1869    1.0716   53.3033 C.ar    1  ZINC001074839487   -0.1300
     16 C16       -10.1796    1.1135   54.6982 C.ar    1  ZINC001074839487   -0.1000
     17 C17       -10.6423    0.0326   55.4215 C.ar    1  ZINC001074839487   -0.1000
     18 C18       -11.1117   -1.0891   54.7669 C.ar    1  ZINC001074839487   -0.1100
     19 C19       -11.6709   -2.4024   55.2637 C.3     1  ZINC001074839487    0.0900
     20 O20       -11.5901   -3.3129   54.1520 O.3     1  ZINC001074839487   -0.3600
     21 C21       -11.6866   -2.4807   52.9817 C.3     1  ZINC001074839487    0.0900
     22 C22       -11.1214   -1.1370   53.3797 C.ar    1  ZINC001074839487   -0.1400
     23 C23       -10.6682   -0.0634   52.6469 C.ar    1  ZINC001074839487   -0.0400
     24 C24        -7.8860    3.4395   51.4022 C.3     1  ZINC001074839487    0.1500
     25 H25        -7.1926    4.0177   52.0130 H       1  ZINC001074839487    0.0700
     26 C26        -9.0561    4.3260   50.9710 C.3     1  ZINC001074839487   -0.1400
     27 C27        -7.1590    2.9095   50.1623 C.3     1  ZINC001074839487   -0.1400
     28 H28        -1.2338    5.9114   51.8485 H       1  ZINC001074839487    0.0500
     29 H29         0.0828    6.0599   50.6599 H       1  ZINC001074839487    0.0500
     30 H30         0.3294    5.1145   52.1477 H       1  ZINC001074839487    0.0500
     31 H31        -1.6198    4.4240   49.9024 H       1  ZINC001074839487    0.0600
     32 H32        -0.0566    3.6270   50.2016 H       1  ZINC001074839487    0.0600
     33 H33        -1.6065    2.2003   51.2756 H       1  ZINC001074839487    0.0700
     34 H34        -0.9888    3.2075   52.6069 H       1  ZINC001074839487    0.0700
     35 H35        -3.2492    3.4728   52.9997 H       1  ZINC001074839487    0.0900
     36 H36        -3.0338    4.7817   51.8130 H       1  ZINC001074839487    0.0900
     37 H37        -5.3700    2.7038   52.4346 H       1  ZINC001074839487    0.4000
     38 H38        -7.4492    0.2529   50.6501 H       1  ZINC001074839487    0.0800
     39 H39        -5.9639    0.0137   51.6024 H       1  ZINC001074839487    0.0800
     40 H40        -8.0013    0.4169   53.0301 H       1  ZINC001074839487    0.1200
     41 H41        -6.7246    1.6366   53.2740 H       1  ZINC001074839487    0.0700
     42 H42        -9.8131    1.9905   55.2111 H       1  ZINC001074839487    0.1500
     43 H43       -10.6374    0.0643   56.5010 H       1  ZINC001074839487    0.1400
     44 H44       -11.0743   -2.7733   56.0972 H       1  ZINC001074839487    0.1000
     45 H45       -12.7090   -2.2763   55.5710 H       1  ZINC001074839487    0.0800
     46 H46       -11.1012   -2.9081   52.1676 H       1  ZINC001074839487    0.1000
     47 H47       -12.7289   -2.3755   52.6807 H       1  ZINC001074839487    0.0800
     48 H48       -10.6808   -0.1003   51.5676 H       1  ZINC001074839487    0.1400
     49 H49        -9.5060    4.7870   51.8503 H       1  ZINC001074839487    0.0800
     50 H50        -8.6942    5.1034   50.2980 H       1  ZINC001074839487    0.0500
     51 H51        -9.8017    3.7190   50.4574 H       1  ZINC001074839487    0.0700
     52 H52        -6.6963    3.7399   49.6291 H       1  ZINC001074839487    0.0900
     53 H53        -7.8730    2.4092   49.5081 H       1  ZINC001074839487    0.0900
@<TRIPOS>BOND
     1     1     2    1
     2     1    28    1
     3     1    29    1
     4     1    30    1
     5     2     3    1
     6     2    31    1
     7     2    32    1
     8     3     4    1
     9     3    33    1
    10     3    34    1
    11     4     5    1
    12     4    35    1
    13     4    36    1
    14     5     6    2
    15     5     7   am
    16     7     8    1
    17     7    37    1
    18     8     9    1
    19     8    27    1
    20     8    10    1
    21    10    11    1
    22    10    38    1
    23    10    39    1
    24    11    12    1
    25    11    40    1
    26    11    41    1
    27    12    13   am
    28    12    24    1
    29    13    14    2
    30    13    15    1
    31    15    23   ar
    32    15    16   ar
    33    16    17   ar
    34    16    42    1
    35    17    18   ar
    36    17    43    1
    37    18    22   ar
    38    18    19    1
    39    19    20    1
    40    19    44    1
    41    19    45    1
    42    20    21    1
    43    21    22    1
    44    21    46    1
    45    21    47    1
    46    22    23   ar
    47    23    48    1
    48    24    25    1
    49    24    26    1
    50    24    27    1
    51    26    49    1
    52    26    50    1
    53    26    51    1
    54    27    52    1
    55    27    53    1
@<TRIPOS>SUBSTRUCTURE
     1 ZINC001074839487        1 TEMP              0 ****  ****    0 ROOT


##########                                Name:    ZINC000031496632
##########                DOCK_Rotatable_Bonds:                   8
##########                         Heavy_Atoms:                  30
##########                    Molecular_Weight:             423.539
##########                DOCK_Rotatable_Bonds:                   8
##########                       Formal_Charge:          -0.0100009
##########                     HBond_Acceptors:                   8
##########                        HBond_Donors:                   1
##########                         Heavy_Atoms:                  30
##########                          Grid_Score:          -31.165600
##########                     Grid_vdw_energy:          -29.960325
##########                      Grid_es_energy:           -1.205276
##########           Internal_energy_repulsive:           13.404916

@<TRIPOS>MOLECULE
ZINC000031496632
 55 58 1 0 0
SMALL
USER_CHARGES


@<TRIPOS>ATOM
      1 C1         -9.2514    1.1110   61.0230 C.3     1  ZINC000031496632   -0.1600
      2 C2         -8.9075   -0.1124   60.1710 C.3     1  ZINC000031496632    0.1600
      3 C3         -9.1905   -1.3862   60.9700 C.3     1  ZINC000031496632   -0.1600
      4 N4         -9.7254   -0.1067   58.9556 N.pl3   1  ZINC000031496632   -0.3900
      5 N5        -10.8685   -0.8838   58.7449 N.2     1  ZINC000031496632   -0.2300
      6 C6        -11.3616   -0.6437   57.5637 C.2     1  ZINC000031496632    0.0800
      7 C7        -10.5120    0.3544   56.9235 C.ar    1  ZINC000031496632   -0.2100
      8 C8        -10.5290    0.9965   55.6800 C.ar    1  ZINC000031496632    0.0100
      9 C9         -9.5283    1.9164   55.4087 C.ar    1  ZINC000031496632    0.0500
     10 N10        -9.4988    2.5878   54.1794 N.am    1  ZINC000031496632   -0.6600
     11 C11        -9.2169    1.9110   53.0486 C.2     1  ZINC000031496632    0.5500
     12 O12        -8.9879    0.7174   53.0952 O.2     1  ZINC000031496632   -0.4900
     13 C13        -9.1859    2.6171   51.7555 C.ar    1  ZINC000031496632   -0.1300
     14 C14       -10.3092    3.3189   51.3106 C.ar    1  ZINC000031496632   -0.0600
     15 C15       -10.2739    3.9769   50.1007 C.ar    1  ZINC000031496632   -0.1400
     16 C16        -9.1291    3.9470   49.3198 C.ar    1  ZINC000031496632   -0.0600
     17 C17        -8.0115    3.2583   49.7441 C.ar    1  ZINC000031496632   -0.1500
     18 C18        -8.0251    2.5937   50.9648 C.ar    1  ZINC000031496632   -0.0600
     19 S19        -6.5994    1.7136   51.5102 S.3     1  ZINC000031496632    0.0900
     20 C20        -5.2320    2.6754   50.8060 C.3     1  ZINC000031496632   -0.2000
     21 C21        -5.1285    3.9984   51.5203 C.2     1  ZINC000031496632    0.5500
     22 O22        -5.5846    5.0000   51.0108 O.2     1  ZINC000031496632   -0.5200
     23 N23        -4.5287    4.0684   52.7253 N.am    1  ZINC000031496632   -0.6200
     24 C24        -3.9282    2.9394   53.4505 C.3     1  ZINC000031496632    0.1000
     25 C25        -3.3889    3.4886   54.7881 C.3     1  ZINC000031496632   -0.1300
     26 C26        -4.2174    4.7847   54.9907 C.3     1  ZINC000031496632   -0.1300
     27 C27        -4.3605    5.2913   53.5314 C.3     1  ZINC000031496632    0.1000
     28 C28        -8.5517    2.1674   56.3712 C.ar    1  ZINC000031496632    0.1600
     29 N29        -8.5575    1.5506   57.5322 N.ar    1  ZINC000031496632   -0.4900
     30 C30        -9.4947    0.6655   57.8476 C.ar    1  ZINC000031496632    0.3000
     31 H31        -8.6430    1.1067   61.9273 H       1  ZINC000031496632    0.0800
     32 H32        -9.0498    2.0184   60.4537 H       1  ZINC000031496632    0.0600
     33 H33       -10.3065    1.0796   61.2948 H       1  ZINC000031496632    0.0700
     34 H34        -7.8524   -0.0810   59.8992 H       1  ZINC000031496632    0.1100
     35 H35        -8.5821   -1.3904   61.8744 H       1  ZINC000031496632    0.0800
     36 H36       -10.2457   -1.4176   61.2420 H       1  ZINC000031496632    0.0700
     37 H37        -8.9456   -2.2578   60.3632 H       1  ZINC000031496632    0.0600
     38 H38       -12.2410   -1.1014   57.1351 H       1  ZINC000031496632    0.2000
     39 H39       -11.2986    0.7814   54.9534 H       1  ZINC000031496632    0.1500
     40 H40        -9.6814    3.5397   54.1422 H       1  ZINC000031496632    0.4100
     41 H41       -11.2042    3.3452   51.9144 H       1  ZINC000031496632    0.1300
     42 H42       -11.1432    4.5189   49.7586 H       1  ZINC000031496632    0.1300
     43 H43        -9.1120    4.4659   48.3728 H       1  ZINC000031496632    0.1300
     44 H44        -7.1238    3.2394   49.1293 H       1  ZINC000031496632    0.1300
     45 H45        -4.2998    2.1236   50.9266 H       1  ZINC000031496632    0.1100
     46 H46        -5.4175    2.8483   49.7460 H       1  ZINC000031496632    0.1100
     47 H47        -4.6838    2.1770   53.6405 H       1  ZINC000031496632    0.0700
     48 H48        -3.1106    2.5165   52.8667 H       1  ZINC000031496632    0.0700
     49 H49        -3.5736    2.7823   55.5975 H       1  ZINC000031496632    0.0900
     50 H50        -2.3263    3.7183   54.7101 H       1  ZINC000031496632    0.0800
     51 H51        -5.1908    4.5619   55.4277 H       1  ZINC000031496632    0.0800
     52 H52        -3.6726    5.5051   55.6008 H       1  ZINC000031496632    0.0900
     53 H53        -3.4640    5.8317   53.2279 H       1  ZINC000031496632    0.0700
     54 H54        -5.2395    5.9286   53.4356 H       1  ZINC000031496632    0.0800
     55 H55        -7.7727    2.8844   56.1583 H       1  ZINC000031496632    0.1700
@<TRIPOS>BOND
     1     1     2    1
     2     1    31    1
     3     1    32    1
     4     1    33    1
     5     2     3    1
     6     2     4    1
     7     2    34    1
     8     3    35    1
     9     3    36    1
    10     3    37    1
    11     4    30    1
    12     4     5    1
    13     5     6    2
    14     6     7    1
    15     6    38    1
    16     7    30   ar
    17     7     8   ar
    18     8     9   ar
    19     8    39    1
    20     9    10    1
    21     9    28   ar
    22    10    11   am
    23    10    40    1
    24    11    12    2
    25    11    13    1
    26    13    18   ar
    27    13    14   ar
    28    14    15   ar
    29    14    41    1
    30    15    16   ar
    31    15    42    1
    32    16    17   ar
    33    16    43    1
    34    17    18   ar
    35    17    44    1
    36    18    19    1
    37    19    20    1
    38    20    21    1
    39    20    45    1
    40    20    46    1
    41    21    22    2
    42    21    23   am
    43    23    27    1
    44    23    24    1
    45    24    25    1
    46    24    47    1
    47    24    48    1
    48    25    26    1
    49    25    49    1
    50    25    50    1
    51    26    27    1
    52    26    51    1
    53    26    52    1
    54    27    53    1
    55    27    54    1
    56    28    29   ar
    57    28    55    1
    58    29    30   ar
@<TRIPOS>SUBSTRUCTURE
     1 ZINC000031496632        1 TEMP              0 ****  ****    0 ROOT


##########                                Name:    ZINC000572148596
##########                DOCK_Rotatable_Bonds:                   4
##########                         Heavy_Atoms:                  26
##########                    Molecular_Weight:             371.463
##########                DOCK_Rotatable_Bonds:                   4
##########                       Formal_Charge:          -0.0199999
##########                     HBond_Acceptors:                   8
##########                        HBond_Donors:                   0
##########                         Heavy_Atoms:                  26
##########                          Grid_Score:          -31.145084
##########                     Grid_vdw_energy:          -31.265615
##########                      Grid_es_energy:            0.120532
##########           Internal_energy_repulsive:            5.435734

@<TRIPOS>MOLECULE
ZINC000572148596
 47 50 1 0 0
SMALL
USER_CHARGES


@<TRIPOS>ATOM
      1 C1        -13.6564   -3.8873   56.9763 C.3     1  ZINC000572148596   -0.1400
      2 C2        -13.0040   -2.5134   56.8089 C.3     1  ZINC000572148596    0.0800
      3 H3        -13.7704   -1.7396   56.8524 H       1  ZINC000572148596    0.1200
      4 C4        -12.0047   -2.2936   57.9153 C.2     1  ZINC000572148596    0.1800
      5 N5        -10.8195   -2.8228   57.9955 N.2     1  ZINC000572148596   -0.3500
      6 O6        -10.2561   -2.4520   59.0035 O.3     1  ZINC000572148596    0.0900
      7 C7        -11.0561   -1.6201   59.6889 C.2     1  ZINC000572148596    0.2300
      8 C8        -10.7448   -0.9511   60.9675 C.ar    1  ZINC000572148596   -0.1200
      9 C9        -11.7427   -0.2603   61.6701 C.ar    1  ZINC000572148596   -0.0100
     10 C10       -11.4090    0.3456   62.8523 C.ar    1  ZINC000572148596   -0.1900
     11 C11       -10.0994    0.2592   63.3188 C.ar    1  ZINC000572148596    0.3400
     12 N12        -9.7583    0.8709   64.5152 N.3     1  ZINC000572148596   -0.4700
     13 C13        -9.3416    2.2634   64.2950 C.3     1  ZINC000572148596    0.0300
     14 C14        -9.0321    2.9174   65.6442 C.3     1  ZINC000572148596    0.0900
     15 H15        -8.6682    3.9320   65.4820 H       1  ZINC000572148596    0.1100
     16 C16       -10.3032    2.9604   66.4948 C.3     1  ZINC000572148596   -0.1800
     17 O17        -8.0300    2.1529   66.3201 O.3     1  ZINC000572148596   -0.3700
     18 C18        -8.4028    0.7918   66.5516 C.3     1  ZINC000572148596    0.0800
     19 H19        -9.2899    0.7599   67.1841 H       1  ZINC000572148596    0.0700
     20 C20        -7.2536    0.0583   67.2460 C.3     1  ZINC000572148596   -0.1400
     21 C21        -8.7060    0.1164   65.2115 C.3     1  ZINC000572148596    0.0300
     22 N22        -9.1748   -0.4004   62.6349 N.ar    1  ZINC000572148596   -0.5200
     23 C23        -9.4548   -1.0019   61.4972 C.ar    1  ZINC000572148596    0.1900
     24 N24       -12.1748   -1.5119   58.9926 N.2     1  ZINC000572148596   -0.4700
     25 C25       -12.3013   -2.4499   55.4773 C.2     1  ZINC000572148596    0.0400
     26 N26       -12.3309   -3.3782   54.5816 N.2     1  ZINC000572148596   -0.4500
     27 C27       -11.6596   -3.1611   53.4687 C.2     1  ZINC000572148596    0.0400
     28 C28       -11.0285   -1.9839   53.4229 C.2     1  ZINC000572148596   -0.2500
     29 S29       -11.3554   -1.1343   54.9316 S.3     1  ZINC000572148596    0.1400
     30 H30       -12.8900   -4.6611   56.9327 H       1  ZINC000572148596    0.0800
     31 H31       -14.1647   -3.9331   57.9394 H       1  ZINC000572148596    0.0700
     32 H32       -14.3792   -4.0462   56.1761 H       1  ZINC000572148596    0.0800
     33 H33       -12.7513   -0.2070   61.2877 H       1  ZINC000572148596    0.1500
     34 H34       -12.1543    0.8857   63.4172 H       1  ZINC000572148596    0.1500
     35 H35        -8.4499    2.2819   63.6685 H       1  ZINC000572148596    0.0600
     36 H36       -10.1453    2.8100   63.8015 H       1  ZINC000572148596    0.1000
     37 H37       -10.6657    1.9455   66.6579 H       1  ZINC000572148596    0.0700
     38 H38       -10.0822    3.4260   67.4552 H       1  ZINC000572148596    0.0600
     39 H39       -11.0674    3.5403   65.9770 H       1  ZINC000572148596    0.0700
     40 H40        -7.0364    0.5422   68.1982 H       1  ZINC000572148596    0.0700
     41 H41        -7.5383   -0.9790   67.4221 H       1  ZINC000572148596    0.0700
     42 H42        -6.3672    0.0892   66.6123 H       1  ZINC000572148596    0.0600
     43 H43        -9.0456   -0.9044   65.3870 H       1  ZINC000572148596    0.1000
     44 H44        -7.8040    0.1004   64.5997 H       1  ZINC000572148596    0.0600
     45 H45        -8.6777   -1.5307   60.9652 H       1  ZINC000572148596    0.1700
     46 H46       -11.6222   -3.8758   52.6599 H       1  ZINC000572148596    0.1800
     47 H47       -10.4274   -1.6165   52.6042 H       1  ZINC000572148596    0.1800
@<TRIPOS>BOND
     1     1     2    1
     2     1    30    1
     3     1    31    1
     4     1    32    1
     5     2     3    1
     6     2     4    1
     7     2    25    1
     8     4    24    1
     9     4     5    2
    10     5     6    1
    11     6     7    1
    12     7     8    1
    13     7    24    2
    14     8    23   ar
    15     8     9   ar
    16     9    10   ar
    17     9    33    1
    18    10    11   ar
    19    10    34    1
    20    11    12    1
    21    11    22   ar
    22    12    21    1
    23    12    13    1
    24    13    14    1
    25    13    35    1
    26    13    36    1
    27    14    15    1
    28    14    16    1
    29    14    17    1
    30    16    37    1
    31    16    38    1
    32    16    39    1
    33    17    18    1
    34    18    19    1
    35    18    20    1
    36    18    21    1
    37    20    40    1
    38    20    41    1
    39    20    42    1
    40    21    43    1
    41    21    44    1
    42    22    23   ar
    43    23    45    1
    44    25    29    1
    45    25    26    2
    46    26    27    1
    47    27    28    2
    48    27    46    1
    49    28    29    1
    50    28    47    1
@<TRIPOS>SUBSTRUCTURE
     1 ZINC000572148596        1 TEMP              0 ****  ****    0 ROOT


##########                                Name:    ZINC000536173632
##########                DOCK_Rotatable_Bonds:                   7
##########                         Heavy_Atoms:                  29
##########                    Molecular_Weight:             407.389
##########                DOCK_Rotatable_Bonds:                   7
##########                       Formal_Charge:        -2.98023e-07
##########                     HBond_Acceptors:                   8
##########                        HBond_Donors:                   0
##########                         Heavy_Atoms:                  29
##########                          Grid_Score:          -31.090714
##########                     Grid_vdw_energy:          -26.368553
##########                      Grid_es_energy:           -4.722161
##########           Internal_energy_repulsive:           16.967573

@<TRIPOS>MOLECULE
ZINC000536173632
 49 51 1 0 0
SMALL
USER_CHARGES


@<TRIPOS>ATOM
      1 C1         -6.0847    1.6652   66.1104 C.3     1  ZINC000536173632    0.0400
      2 O2         -6.3735    0.3787   66.7186 O.3     1  ZINC000536173632   -0.3500
      3 C3         -7.6653   -0.0005   66.7632 C.2     1  ZINC000536173632    0.5100
      4 O4         -7.9674   -1.0720   67.2491 O.2     1  ZINC000536173632   -0.5000
      5 C5         -8.7147    0.8869   66.2213 C.ar    1  ZINC000536173632   -0.1300
      6 C6         -9.4731    1.6829   67.0816 C.ar    1  ZINC000536173632   -0.0600
      7 C7        -10.4516    2.5093   66.5688 C.ar    1  ZINC000536173632   -0.1300
      8 C8        -10.6825    2.5498   65.2054 C.ar    1  ZINC000536173632   -0.0700
      9 C9         -9.9346    1.7634   64.3468 C.ar    1  ZINC000536173632   -0.0800
     10 C10       -10.1933    1.8143   62.8630 C.3     1  ZINC000536173632   -0.1000
     11 C11       -11.2725    0.8246   62.5071 C.2     1  ZINC000536173632    0.5200
     12 O12       -11.9291    0.3022   63.3828 O.2     1  ZINC000536173632   -0.5200
     13 N13       -11.5080    0.5199   61.2155 N.am    1  ZINC000536173632   -0.6200
     14 C14       -12.5564   -0.4434   60.8433 C.3     1  ZINC000536173632    0.0700
     15 C15       -11.9469   -1.4764   59.8887 C.3     1  ZINC000536173632    0.0500
     16 O16       -11.2982   -0.7965   58.8113 O.3     1  ZINC000536173632   -0.3700
     17 C17       -10.2045    0.0308   59.2154 C.3     1  ZINC000536173632    0.1200
     18 H18        -9.4706   -0.5716   59.7507 H       1  ZINC000536173632    0.0800
     19 C19        -9.5612    0.6445   57.9986 C.ar    1  ZINC000536173632   -0.0900
     20 C20        -8.3216    1.2468   58.1018 C.ar    1  ZINC000536173632   -0.0600
     21 C21        -7.7314    1.8098   56.9855 C.ar    1  ZINC000536173632   -0.1200
     22 C22        -8.3809    1.7698   55.7662 C.ar    1  ZINC000536173632   -0.0700
     23 C23        -9.6205    1.1664   55.6626 C.ar    1  ZINC000536173632   -0.1800
     24 C24       -10.3289    1.1232   54.3332 C.3     1  ZINC000536173632    0.5100
     25 F25       -10.5192   -0.2085   53.9493 F       1  ZINC000536173632   -0.1800
     26 F26       -11.5705    1.7582   54.4455 F       1  ZINC000536173632   -0.1800
     27 F27        -9.5547    1.7800   53.3707 F       1  ZINC000536173632   -0.1800
     28 C28       -10.2086    0.5999   56.7777 C.ar    1  ZINC000536173632   -0.0500
     29 C29       -10.7285    1.1453   60.1354 C.3     1  ZINC000536173632    0.0900
     30 C30        -8.9489    0.9374   64.8455 C.ar    1  ZINC000536173632   -0.0400
     31 H31        -6.4250    1.6622   65.0749 H       1  ZINC000536173632    0.0600
     32 H32        -6.6018    2.4514   66.6605 H       1  ZINC000536173632    0.0600
     33 H33        -5.0105    1.8478   66.1393 H       1  ZINC000536173632    0.1000
     34 H34        -9.2943    1.6517   68.1463 H       1  ZINC000536173632    0.1400
     35 H35       -11.0389    3.1257   67.2334 H       1  ZINC000536173632    0.1400
     36 H36       -11.4502    3.1980   64.8093 H       1  ZINC000536173632    0.1300
     37 H37       -10.5144    2.8180   62.5844 H       1  ZINC000536173632    0.1100
     38 H38        -9.2785    1.5632   62.3260 H       1  ZINC000536173632    0.1100
     39 H39       -12.9287   -0.9442   61.7371 H       1  ZINC000536173632    0.1000
     40 H40       -13.3744    0.0781   60.3464 H       1  ZINC000536173632    0.0800
     41 H41       -11.2194   -2.0843   60.4263 H       1  ZINC000536173632    0.0600
     42 H42       -12.7357   -2.1163   59.4930 H       1  ZINC000536173632    0.1100
     43 H43        -7.8141    1.2780   59.0546 H       1  ZINC000536173632    0.1400
     44 H44        -6.7630    2.2811   57.0663 H       1  ZINC000536173632    0.1400
     45 H45        -7.9202    2.2102   54.8942 H       1  ZINC000536173632    0.1400
     46 H46       -11.1769    0.1285   56.6969 H       1  ZINC000536173632    0.1400
     47 H47       -11.3613    1.8251   59.5648 H       1  ZINC000536173632    0.0800
     48 H48        -9.8890    1.6948   60.5613 H       1  ZINC000536173632    0.1100
     49 H49        -8.3657    0.3244   64.1744 H       1  ZINC000536173632    0.1400
@<TRIPOS>BOND
     1     1     2    1
     2     1    31    1
     3     1    32    1
     4     1    33    1
     5     2     3    1
     6     3     4    2
     7     3     5    1
     8     5    30   ar
     9     5     6   ar
    10     6     7   ar
    11     6    34    1
    12     7     8   ar
    13     7    35    1
    14     8     9   ar
    15     8    36    1
    16     9    10    1
    17     9    30   ar
    18    10    11    1
    19    10    37    1
    20    10    38    1
    21    11    12    2
    22    11    13   am
    23    13    29    1
    24    13    14    1
    25    14    15    1
    26    14    39    1
    27    14    40    1
    28    15    16    1
    29    15    41    1
    30    15    42    1
    31    16    17    1
    32    17    18    1
    33    17    19    1
    34    17    29    1
    35    19    28   ar
    36    19    20   ar
    37    20    21   ar
    38    20    43    1
    39    21    22   ar
    40    21    44    1
    41    22    23   ar
    42    22    45    1
    43    23    24    1
    44    23    28   ar
    45    24    25    1
    46    24    26    1
    47    24    27    1
    48    28    46    1
    49    29    47    1
    50    29    48    1
    51    30    49    1
@<TRIPOS>SUBSTRUCTURE
     1 ZINC000536173632        1 TEMP              0 ****  ****    0 ROOT


##########                                Name:    ZINC000288921983
##########                DOCK_Rotatable_Bonds:                   6
##########                         Heavy_Atoms:                  26
##########                    Molecular_Weight:             356.428
##########                DOCK_Rotatable_Bonds:                   6
##########                       Formal_Charge:           0.0199997
##########                     HBond_Acceptors:                   8
##########                        HBond_Donors:                   1
##########                         Heavy_Atoms:                  26
##########                          Grid_Score:          -31.066309
##########                     Grid_vdw_energy:          -31.191750
##########                      Grid_es_energy:            0.125440
##########           Internal_energy_repulsive:           60.823036

@<TRIPOS>MOLECULE
ZINC000288921983
 50 53 1 0 0
SMALL
USER_CHARGES


@<TRIPOS>ATOM
      1 C1         -5.5217    4.2651   51.3756 C.3     1  ZINC000288921983   -0.1400
      2 C2         -5.2349    2.8153   50.9798 C.3     1  ZINC000288921983   -0.0500
      3 C3         -6.4079    1.9492   51.3606 C.ar    1  ZINC000288921983    0.3000
      4 N4         -6.1889    0.7058   51.7388 N.ar    1  ZINC000288921983   -0.5000
      5 C5         -7.1913   -0.0865   52.0809 C.ar    1  ZINC000288921983    0.1300
      6 C6         -8.4909    0.4112   52.0368 C.ar    1  ZINC000288921983    0.0500
      7 N7         -9.5805   -0.3933   52.3910 N.am    1  ZINC000288921983   -0.6700
      8 C8        -10.3239   -0.0833   53.4716 C.2     1  ZINC000288921983    0.7100
      9 O9        -10.0482    0.8949   54.1389 O.2     1  ZINC000288921983   -0.5500
     10 N10       -11.3729   -0.8578   53.8126 N.am    1  ZINC000288921983   -0.6200
     11 C11       -11.7184   -2.0431   53.0161 C.3     1  ZINC000288921983    0.1100
     12 C12       -11.7934   -3.2577   53.9468 C.3     1  ZINC000288921983   -0.1400
     13 C13       -12.7688   -2.9612   55.0882 C.3     1  ZINC000288921983   -0.1200
     14 C14       -12.2624   -1.7642   55.8961 C.3     1  ZINC000288921983   -0.1300
     15 C15       -12.1891   -0.5361   54.9912 C.3     1  ZINC000288921983    0.2700
     16 H16       -13.1928   -0.2594   54.6688 H       1  ZINC000288921983    0.1100
     17 C17       -11.5663    0.6106   55.7451 C.2     1  ZINC000288921983    0.1700
     18 N18       -11.8810    1.8695   55.6311 N.2     1  ZINC000288921983   -0.2500
     19 N19       -11.1473    2.5667   56.4256 N.2     1  ZINC000288921983   -0.2700
     20 C20       -10.3395    1.7761   57.0734 C.2     1  ZINC000288921983    0.1800
     21 C21        -9.3170    2.1920   58.0994 C.3     1  ZINC000288921983   -0.0300
     22 C22        -8.0770    1.2834   58.1368 C.3     1  ZINC000288921983   -0.1200
     23 C23        -7.4638    2.2089   57.0727 C.3     1  ZINC000288921983   -0.1400
     24 C24        -8.3829    3.3147   57.6181 C.3     1  ZINC000288921983   -0.1200
     25 O25       -10.5887    0.5213   56.6625 O.3     1  ZINC000288921983   -0.2200
     26 C26        -8.6783    1.7300   51.6317 C.ar    1  ZINC000288921983    0.1600
     27 N27        -7.6223    2.4589   51.3108 N.ar    1  ZINC000288921983   -0.5000
     28 H28        -4.6733    4.8916   51.1002 H       1  ZINC000288921983    0.0700
     29 H29        -6.4144    4.6138   50.8563 H       1  ZINC000288921983    0.0600
     30 H30        -5.6817    4.3229   52.4523 H       1  ZINC000288921983    0.0600
     31 H31        -5.0748    2.7574   49.9032 H       1  ZINC000288921983    0.0900
     32 H32        -4.3422    2.4667   51.4991 H       1  ZINC000288921983    0.0900
     33 H33        -7.0045   -1.1044   52.3894 H       1  ZINC000288921983    0.1700
     34 H34        -9.8005   -1.1738   51.8585 H       1  ZINC000288921983    0.4100
     35 H35       -12.6847   -1.8913   52.5351 H       1  ZINC000288921983    0.0800
     36 H36       -10.9528   -2.2102   52.2585 H       1  ZINC000288921983    0.0800
     37 H37       -12.1425   -4.1248   53.3859 H       1  ZINC000288921983    0.0900
     38 H38       -10.8048   -3.4632   54.3571 H       1  ZINC000288921983    0.0700
     39 H39       -13.7513   -2.7316   54.6760 H       1  ZINC000288921983    0.0700
     40 H40       -12.8427   -3.8330   55.7383 H       1  ZINC000288921983    0.0800
     41 H41       -12.9453   -1.5682   56.7228 H       1  ZINC000288921983    0.0900
     42 H42       -11.2694   -1.9837   56.2882 H       1  ZINC000288921983    0.0900
     43 H43        -9.7536    2.3779   59.0807 H       1  ZINC000288921983    0.1000
     44 H44        -7.5490    1.3044   59.0902 H       1  ZINC000288921983    0.1000
     45 H45        -8.2662    0.2715   57.7787 H       1  ZINC000288921983    0.0800
     46 H46        -6.4032    2.4077   57.2258 H       1  ZINC000288921983    0.0700
     47 H47        -7.6967    1.9126   56.0499 H       1  ZINC000288921983    0.1000
     48 H48        -8.8190    3.9426   56.8411 H       1  ZINC000288921983    0.0700
     49 H49        -7.9385    3.8910   58.4296 H       1  ZINC000288921983    0.1000
     50 H50        -9.6710    2.1528   51.5840 H       1  ZINC000288921983    0.1800
@<TRIPOS>BOND
     1     1     2    1
     2     1    28    1
     3     1    29    1
     4     1    30    1
     5     2     3    1
     6     2    31    1
     7     2    32    1
     8     3    27   ar
     9     3     4   ar
    10     4     5   ar
    11     5     6   ar
    12     5    33    1
    13     6     7    1
    14     6    26   ar
    15     7     8   am
    16     7    34    1
    17     8     9    2
    18     8    10   am
    19    10    15    1
    20    10    11    1
    21    11    12    1
    22    11    35    1
    23    11    36    1
    24    12    13    1
    25    12    37    1
    26    12    38    1
    27    13    14    1
    28    13    39    1
    29    13    40    1
    30    14    15    1
    31    14    41    1
    32    14    42    1
    33    15    16    1
    34    15    17    1
    35    17    25    1
    36    17    18    2
    37    18    19    1
    38    19    20    2
    39    20    21    1
    40    20    25    1
    41    21    24    1
    42    21    22    1
    43    21    43    1
    44    22    23    1
    45    22    44    1
    46    22    45    1
    47    23    24    1
    48    23    46    1
    49    23    47    1
    50    24    48    1
    51    24    49    1
    52    26    27   ar
    53    26    50    1
@<TRIPOS>SUBSTRUCTURE
     1 ZINC000288921983        1 TEMP              0 ****  ****    0 ROOT


##########                                Name:    ZINC000195331548
##########                DOCK_Rotatable_Bonds:                   7
##########                         Heavy_Atoms:                  26
##########                    Molecular_Weight:             378.539
##########                DOCK_Rotatable_Bonds:                   7
##########                       Formal_Charge:          -0.0100004
##########                     HBond_Acceptors:                   7
##########                        HBond_Donors:                   2
##########                         Heavy_Atoms:                  26
##########                          Grid_Score:          -31.051199
##########                     Grid_vdw_energy:          -28.730389
##########                      Grid_es_energy:           -2.320810
##########           Internal_energy_repulsive:           28.644196

@<TRIPOS>MOLECULE
ZINC000195331548
 56 58 1 0 0
SMALL
USER_CHARGES


@<TRIPOS>ATOM
      1 C1        -13.4191    3.8636   49.3098 C.3     1  ZINC000195331548   -0.0800
      2 C2        -13.2195    2.5801   50.0737 C.2     1  ZINC000195331548    0.0700
      3 C3        -13.9833    1.4999   49.8846 C.2     1  ZINC000195331548   -0.2600
      4 S4        -13.4083    0.2332   50.9660 S.3     1  ZINC000195331548    0.1100
      5 C5        -12.2034    1.2847   51.5708 C.2     1  ZINC000195331548    0.0600
      6 C6        -11.1969    0.9231   52.6326 C.3     1  ZINC000195331548   -0.0100
      7 H7        -11.6188    0.1641   53.2914 H       1  ZINC000195331548    0.1100
      8 C8        -10.8445    2.1699   53.4487 C.3     1  ZINC000195331548   -0.1200
      9 C9         -9.7775    1.8070   54.4853 C.3     1  ZINC000195331548   -0.1100
     10 C10        -8.5514    1.2359   53.7696 C.3     1  ZINC000195331548    0.0500
     11 N11        -8.9406    0.0448   53.0038 N.3     1  ZINC000195331548   -0.5200
     12 C12        -7.7646   -0.6102   52.4153 C.3     1  ZINC000195331548    0.0400
     13 C13        -7.0447    0.3626   51.5174 C.2     1  ZINC000195331548    0.5100
     14 O14        -7.3921    0.4934   50.3633 O.2     1  ZINC000195331548   -0.4400
     15 N15        -6.0146    1.0872   51.9974 N.am    1  ZINC000195331548   -0.7000
     16 C16        -5.3696    1.9561   51.1939 C.2     1  ZINC000195331548    0.6900
     17 O17        -5.7160    2.0851   50.0360 O.2     1  ZINC000195331548   -0.5300
     18 N18        -4.3406    2.6818   51.6743 N.am    1  ZINC000195331548   -0.7300
     19 C19        -3.6407    3.6276   50.8013 C.3     1  ZINC000195331548    0.1700
     20 H20        -4.3043    3.9357   49.9933 H       1  ZINC000195331548    0.0900
     21 C21        -2.3986    2.9553   50.2130 C.3     1  ZINC000195331548   -0.1300
     22 C22        -1.4672    2.5228   51.3472 C.3     1  ZINC000195331548   -0.1200
     23 C23        -1.0470    3.7503   52.1580 C.3     1  ZINC000195331548   -0.1200
     24 C24        -2.2890    4.4227   52.7464 C.3     1  ZINC000195331548   -0.1100
     25 C25        -3.2204    4.8551   51.6122 C.3     1  ZINC000195331548   -0.1000
     26 H26        -2.6997    5.5587   50.9627 H       1  ZINC000195331548    0.0900
     27 C27        -4.4626    5.5273   52.2006 C.3     1  ZINC000195331548   -0.1500
     28 C28        -9.9295    0.3776   51.9706 C.3     1  ZINC000195331548    0.0600
     29 N29       -12.2771    2.4307   50.9827 N.2     1  ZINC000195331548   -0.4700
     30 H30       -12.8197    3.8418   48.3996 H       1  ZINC000195331548    0.0800
     31 H31       -14.4720    3.9711   49.0488 H       1  ZINC000195331548    0.0800
     32 H32       -13.1102    4.7064   49.9282 H       1  ZINC000195331548    0.0800
     33 H33       -14.8053    1.4168   49.1891 H       1  ZINC000195331548    0.1800
     34 H34       -10.4588    2.9431   52.7843 H       1  ZINC000195331548    0.0600
     35 H35       -11.7365    2.5372   53.9560 H       1  ZINC000195331548    0.0700
     36 H36        -9.4916    2.6999   55.0410 H       1  ZINC000195331548    0.0800
     37 H37       -10.1772    1.0619   55.1733 H       1  ZINC000195331548    0.0800
     38 H38        -7.7953    0.9631   54.5058 H       1  ZINC000195331548    0.0800
     39 H39        -8.1442    1.9862   53.0919 H       1  ZINC000195331548    0.0400
     40 H40        -8.0836   -1.4745   51.8329 H       1  ZINC000195331548    0.1200
     41 H41        -7.0938   -0.9353   53.2106 H       1  ZINC000195331548    0.0700
     42 H42        -5.7374    0.9834   52.9211 H       1  ZINC000195331548    0.4100
     43 H43        -4.0634    2.5780   52.5980 H       1  ZINC000195331548    0.4000
     44 H44        -1.8779    3.6590   49.5635 H       1  ZINC000195331548    0.0700
     45 H45        -2.6980    2.0808   49.6352 H       1  ZINC000195331548    0.0700
     46 H46        -0.5823    2.0439   50.9279 H       1  ZINC000195331548    0.0600
     47 H47        -1.9879    1.8192   51.9966 H       1  ZINC000195331548    0.0600
     48 H48        -0.3834    3.4422   52.9660 H       1  ZINC000195331548    0.0600
     49 H49        -0.5262    4.4540   51.5085 H       1  ZINC000195331548    0.0600
     50 H50        -2.8098    3.7189   53.3959 H       1  ZINC000195331548    0.0600
     51 H51        -1.9897    5.2972   53.3241 H       1  ZINC000195331548    0.0700
     52 H52        -4.9833    4.8237   52.8500 H       1  ZINC000195331548    0.0500
     53 H53        -4.1632    6.4018   52.7783 H       1  ZINC000195331548    0.0600
     54 H54        -5.1262    5.8354   51.3926 H       1  ZINC000195331548    0.0600
     55 H55        -9.5158    1.1321   51.3014 H       1  ZINC000195331548    0.0400
     56 H56       -10.1745   -0.5184   51.4003 H       1  ZINC000195331548    0.0900
@<TRIPOS>BOND
     1     1     2    1
     2     1    30    1
     3     1    31    1
     4     1    32    1
     5     2    29    1
     6     2     3    2
     7     3     4    1
     8     3    33    1
     9     4     5    1
    10     5     6    1
    11     5    29    2
    12     6     7    1
    13     6    28    1
    14     6     8    1
    15     8     9    1
    16     8    34    1
    17     8    35    1
    18     9    10    1
    19     9    36    1
    20     9    37    1
    21    10    11    1
    22    10    38    1
    23    10    39    1
    24    11    12    1
    25    11    28    1
    26    12    13    1
    27    12    40    1
    28    12    41    1
    29    13    14    2
    30    13    15   am
    31    15    16   am
    32    15    42    1
    33    16    17    2
    34    16    18   am
    35    18    19    1
    36    18    43    1
    37    19    20    1
    38    19    25    1
    39    19    21    1
    40    21    22    1
    41    21    44    1
    42    21    45    1
    43    22    23    1
    44    22    46    1
    45    22    47    1
    46    23    24    1
    47    23    48    1
    48    23    49    1
    49    24    25    1
    50    24    50    1
    51    24    51    1
    52    25    26    1
    53    25    27    1
    54    27    52    1
    55    27    53    1
    56    27    54    1
    57    28    55    1
    58    28    56    1
@<TRIPOS>SUBSTRUCTURE
     1 ZINC000195331548        1 TEMP              0 ****  ****    0 ROOT


##########                                Name:    ZINC001141221454
##########                DOCK_Rotatable_Bonds:                   7
##########                         Heavy_Atoms:                  27
##########                    Molecular_Weight:             369.439
##########                DOCK_Rotatable_Bonds:                   7
##########                       Formal_Charge:          0.00999935
##########                     HBond_Acceptors:                   6
##########                        HBond_Donors:                   1
##########                         Heavy_Atoms:                  27
##########                          Grid_Score:          -31.045361
##########                     Grid_vdw_energy:          -30.826883
##########                      Grid_es_energy:           -0.218478
##########           Internal_energy_repulsive:            8.881866

@<TRIPOS>MOLECULE
ZINC001141221454
 51 54 1 0 0
SMALL
USER_CHARGES


@<TRIPOS>ATOM
      1 C1         -4.1173    2.7074   50.3544 C.3     1  ZINC001141221454    0.0300
      2 O2         -4.7297    1.7107   51.1751 O.3     1  ZINC001141221454   -0.3100
      3 C3         -5.7321    2.1191   51.9979 C.ar    1  ZINC001141221454    0.0900
      4 C4         -5.4827    3.0655   52.9794 C.ar    1  ZINC001141221454   -0.1800
      5 C5         -6.5033    3.4797   53.8145 C.ar    1  ZINC001141221454   -0.0900
      6 C6         -7.7727    2.9515   53.6722 C.ar    1  ZINC001141221454   -0.1200
      7 C7         -8.0259    2.0067   52.6945 C.ar    1  ZINC001141221454   -0.0800
      8 C8         -9.4109    1.4326   52.5426 C.3     1  ZINC001141221454    0.0900
      9 N9         -9.6981    0.5410   53.6741 N.3     1  ZINC001141221454   -0.5100
     10 C10       -10.5990    1.1992   54.6555 C.3     1  ZINC001141221454    0.0300
     11 C11       -11.2055    0.0070   55.4404 C.3     1  ZINC001141221454   -0.0700
     12 C12       -11.3780   -1.0648   54.3484 C.3     1  ZINC001141221454   -0.1000
     13 C13       -12.7406   -1.6781   54.0534 C.3     1  ZINC001141221454   -0.1400
     14 C14       -11.6418   -2.5213   54.7070 C.3     1  ZINC001141221454   -0.1800
     15 H15       -11.1623   -3.2853   54.0951 H       1  ZINC001141221454    0.1300
     16 C16       -11.8008   -2.8622   56.1662 C.2     1  ZINC001141221454    0.5500
     17 O17       -12.9045   -2.8754   56.6691 O.2     1  ZINC001141221454   -0.5300
     18 N18       -10.7168   -3.1524   56.9125 N.am    1  ZINC001141221454   -0.7300
     19 C19       -10.8711   -3.4820   58.3315 C.3     1  ZINC001141221454    0.1700
     20 C20       -10.5469   -2.2703   59.1669 C.ar    1  ZINC001141221454   -0.1600
     21 C21        -9.2713   -2.0919   59.6793 C.ar    1  ZINC001141221454   -0.0600
     22 C22        -9.0185   -0.9617   60.4421 C.ar    1  ZINC001141221454   -0.1700
     23 C23       -10.0393   -0.0574   60.6646 C.ar    1  ZINC001141221454    0.1100
     24 N24       -11.2415   -0.2597   60.1612 N.ar    1  ZINC001141221454   -0.4800
     25 C25       -11.5163   -1.3199   59.4271 C.ar    1  ZINC001141221454    0.1200
     26 C26       -10.4111   -0.6762   53.2230 C.3     1  ZINC001141221454    0.0700
     27 C27        -7.0099    1.5928   51.8526 C.ar    1  ZINC001141221454    0.0900
     28 F28        -7.2567    0.6699   50.8973 F       1  ZINC001141221454   -0.1300
     29 H29        -3.3357    2.2492   49.7484 H       1  ZINC001141221454    0.1000
     30 H30        -4.8686    3.1528   49.7021 H       1  ZINC001141221454    0.0600
     31 H31        -3.6807    3.4806   50.9866 H       1  ZINC001141221454    0.0600
     32 H32        -4.4913    3.4788   53.0920 H       1  ZINC001141221454    0.1400
     33 H33        -6.3086    4.2168   54.5794 H       1  ZINC001141221454    0.1300
     34 H34        -8.5683    3.2771   54.3261 H       1  ZINC001141221454    0.1300
     35 H35       -10.1400    2.2426   52.5241 H       1  ZINC001141221454    0.0600
     36 H36        -9.4703    0.8689   51.6116 H       1  ZINC001141221454    0.0900
     37 H37       -10.0319    1.8493   55.3218 H       1  ZINC001141221454    0.0800
     38 H38       -11.3809    1.7600   54.1435 H       1  ZINC001141221454    0.0500
     39 H39       -10.5183   -0.3364   56.2136 H       1  ZINC001141221454    0.0900
     40 H40       -12.1694    0.2783   55.8712 H       1  ZINC001141221454    0.0700
     41 H41       -13.5778   -1.3695   54.6794 H       1  ZINC001141221454    0.1000
     42 H42       -12.9837   -1.8877   53.0117 H       1  ZINC001141221454    0.1100
     43 H43        -9.8342   -3.1430   56.5100 H       1  ZINC001141221454    0.4000
     44 H44       -11.8986   -3.7910   58.5231 H       1  ZINC001141221454    0.0800
     45 H45       -10.1928   -4.2946   58.5916 H       1  ZINC001141221454    0.0800
     46 H46        -8.4928   -2.8160   59.4891 H       1  ZINC001141221454    0.1400
     47 H47        -8.0362   -0.7907   60.8572 H       1  ZINC001141221454    0.1400
     48 H48        -9.8507    0.8251   61.2579 H       1  ZINC001141221454    0.1600
     49 H49       -12.5127   -1.4517   59.0319 H       1  ZINC001141221454    0.1600
     50 H50       -10.9674   -0.4655   52.3097 H       1  ZINC001141221454    0.0500
     51 H51        -9.6987   -1.4825   53.0485 H       1  ZINC001141221454    0.0900
@<TRIPOS>BOND
     1     1     2    1
     2     1    29    1
     3     1    30    1
     4     1    31    1
     5     2     3    1
     6     3    27   ar
     7     3     4   ar
     8     4     5   ar
     9     4    32    1
    10     5     6   ar
    11     5    33    1
    12     6     7   ar
    13     6    34    1
    14     7     8    1
    15     7    27   ar
    16     8     9    1
    17     8    35    1
    18     8    36    1
    19     9    26    1
    20     9    10    1
    21    10    11    1
    22    10    37    1
    23    10    38    1
    24    11    12    1
    25    11    39    1
    26    11    40    1
    27    12    14    1
    28    12    13    1
    29    12    26    1
    30    13    14    1
    31    13    41    1
    32    13    42    1
    33    14    15    1
    34    14    16    1
    35    16    17    2
    36    16    18   am
    37    18    19    1
    38    18    43    1
    39    19    20    1
    40    19    44    1
    41    19    45    1
    42    20    25   ar
    43    20    21   ar
    44    21    22   ar
    45    21    46    1
    46    22    23   ar
    47    22    47    1
    48    23    24   ar
    49    23    48    1
    50    24    25   ar
    51    25    49    1
    52    26    50    1
    53    26    51    1
    54    27    28    1
@<TRIPOS>SUBSTRUCTURE
     1 ZINC001141221454        1 TEMP              0 ****  ****    0 ROOT


##########                                Name:    ZINC000851838607
##########                DOCK_Rotatable_Bonds:                  12
##########                         Heavy_Atoms:                  23
##########                    Molecular_Weight:             352.495
##########                DOCK_Rotatable_Bonds:                  12
##########                       Formal_Charge:          0.00999896
##########                     HBond_Acceptors:                   8
##########                        HBond_Donors:                   2
##########                         Heavy_Atoms:                  23
##########                          Grid_Score:          -31.022503
##########                     Grid_vdw_energy:          -30.984905
##########                      Grid_es_energy:           -0.037598
##########           Internal_energy_repulsive:           25.318687

@<TRIPOS>MOLECULE
ZINC000851838607
 55 54 1 0 0
SMALL
USER_CHARGES


@<TRIPOS>ATOM
      1 C1         -9.6119    1.5596   55.0363 C.3     1  ZINC000851838607    0.0300
      2 O2         -9.1834    1.2085   53.7190 O.3     1  ZINC000851838607   -0.3800
      3 C3        -10.1858    1.3832   52.7157 C.3     1  ZINC000851838607    0.0800
      4 C4        -11.2858    0.3370   52.9062 C.3     1  ZINC000851838607   -0.6000
      5 H5        -11.5956    0.3216   53.9511 H       1  ZINC000851838607    0.1400
      6 C6        -12.4847    0.6911   52.0240 C.3     1  ZINC000851838607   -0.1400
      7 S7        -10.6531   -1.2976   52.4390 S.o2    1  ZINC000851838607    2.6200
      8 O8        -11.4417   -1.8589   51.3987 O.2     1  ZINC000851838607   -0.9400
      9 O9         -9.2348   -1.2775   52.3536 O.2     1  ZINC000851838607   -0.9500
     10 N10       -10.9697   -2.2542   53.7532 N.am    1  ZINC000851838607   -1.1200
     11 C11       -12.3495   -2.4397   54.2088 C.3     1  ZINC000851838607    0.1100
     12 C12       -12.5621   -1.6742   55.5163 C.3     1  ZINC000851838607   -0.1400
     13 C13       -12.7816   -2.6676   56.6591 C.3     1  ZINC000851838607    0.1700
     14 H14       -12.0882   -3.5019   56.5534 H       1  ZINC000851838607    0.1000
     15 N15       -12.5473   -1.9972   57.9405 N.am    1  ZINC000851838607   -0.7100
     16 C16       -11.5681   -2.4308   58.7588 C.2     1  ZINC000851838607    0.6500
     17 O17       -10.8785   -3.3769   58.4330 O.2     1  ZINC000851838607   -0.5600
     18 O18       -11.3539   -1.8158   59.9371 O.3     1  ZINC000851838607   -0.3700
     19 C19       -10.2770   -0.8431   59.9868 C.3     1  ZINC000851838607    0.1400
     20 C20       -10.3851   -0.0280   61.2771 C.3     1  ZINC000851838607   -0.1800
     21 C21        -8.9311   -1.5700   59.9540 C.3     1  ZINC000851838607   -0.1400
     22 C22       -10.3799    0.0938   58.7817 C.3     1  ZINC000851838607   -0.1800
     23 C23       -14.2189   -3.1898   56.6120 C.3     1  ZINC000851838607   -0.1100
     24 C24       -14.2056   -4.7197   56.6042 C.3     1  ZINC000851838607   -0.1500
     25 C25       -14.9826   -2.6926   57.8410 C.3     1  ZINC000851838607   -0.1400
     26 H26        -9.9062    2.6090   55.0549 H       1  ZINC000851838607    0.0400
     27 H27       -10.4619    0.9388   55.3193 H       1  ZINC000851838607    0.0500
     28 H28        -8.7945    1.3989   55.7392 H       1  ZINC000851838607    0.0900
     29 H29       -10.6151    2.3815   52.8011 H       1  ZINC000851838607    0.0700
     30 H30        -9.7374    1.2636   51.7294 H       1  ZINC000851838607    0.0600
     31 H31       -13.2309   -0.1008   52.0900 H       1  ZINC000851838607    0.0700
     32 H32       -12.9208    1.6305   52.3636 H       1  ZINC000851838607    0.0900
     33 H33       -12.1565    0.7957   50.9898 H       1  ZINC000851838607    0.0700
     34 H34       -10.2414   -2.6919   54.2212 H       1  ZINC000851838607    0.4200
     35 H35       -13.0362   -2.0624   53.4510 H       1  ZINC000851838607    0.0700
     36 H36       -12.5382   -3.5005   54.3740 H       1  ZINC000851838607    0.0800
     37 H37       -11.6832   -1.0653   55.7279 H       1  ZINC000851838607    0.0800
     38 H38       -13.4363   -1.0299   55.4221 H       1  ZINC000851838607    0.1000
     39 H39       -13.0969   -1.2413   58.2000 H       1  ZINC000851838607    0.4100
     40 H40       -10.3117   -0.6955   62.1357 H       1  ZINC000851838607    0.0600
     41 H41        -9.5767    0.7022   61.3144 H       1  ZINC000851838607    0.0700
     42 H42       -11.3439    0.4899   61.3005 H       1  ZINC000851838607    0.0900
     43 H43        -8.8541   -2.1508   59.0348 H       1  ZINC000851838607    0.0700
     44 H44        -8.1227   -0.8399   59.9914 H       1  ZINC000851838607    0.0800
     45 H45        -8.8577   -2.2375   60.8127 H       1  ZINC000851838607    0.0700
     46 H46       -11.3388    0.6118   58.8049 H       1  ZINC000851838607    0.0900
     47 H47        -9.5715    0.8241   58.8189 H       1  ZINC000851838607    0.0700
     48 H48       -10.3029   -0.4869   57.8623 H       1  ZINC000851838607    0.0600
     49 H49       -14.7082   -2.8261   55.7085 H       1  ZINC000851838607    0.0700
     50 H50       -13.7163   -5.0834   57.5077 H       1  ZINC000851838607    0.0600
     51 H51       -15.2297   -5.0917   56.5707 H       1  ZINC000851838607    0.0600
     52 H52       -13.6615   -5.0739   55.7287 H       1  ZINC000851838607    0.0600
     53 H53       -14.9921   -1.6027   57.8466 H       1  ZINC000851838607    0.0500
     54 H54       -16.0065   -3.0647   57.8075 H       1  ZINC000851838607    0.0500
     55 H55       -14.4933   -3.0564   58.7446 H       1  ZINC000851838607    0.0700
@<TRIPOS>BOND
     1     1     2    1
     2     1    26    1
     3     1    27    1
     4     1    28    1
     5     2     3    1
     6     3     4    1
     7     3    29    1
     8     3    30    1
     9     4     5    1
    10     4     6    1
    11     4     7    1
    12     6    31    1
    13     6    32    1
    14     6    33    1
    15     7     8    2
    16     7     9    2
    17     7    10   am
    18    10    11    1
    19    10    34    1
    20    11    12    1
    21    11    35    1
    22    11    36    1
    23    12    13    1
    24    12    37    1
    25    12    38    1
    26    13    14    1
    27    13    15    1
    28    13    23    1
    29    15    16   am
    30    15    39    1
    31    16    17    2
    32    16    18    1
    33    18    19    1
    34    19    20    1
    35    19    21    1
    36    19    22    1
    37    20    40    1
    38    20    41    1
    39    20    42    1
    40    21    43    1
    41    21    44    1
    42    21    45    1
    43    22    46    1
    44    22    47    1
    45    22    48    1
    46    23    24    1
    47    23    25    1
    48    23    49    1
    49    24    50    1
    50    24    51    1
    51    24    52    1
    52    25    53    1
    53    25    54    1
    54    25    55    1
@<TRIPOS>SUBSTRUCTURE
     1 ZINC000851838607        1 TEMP              0 ****  ****    0 ROOT


##########                                Name:    ZINC000338927927
##########                DOCK_Rotatable_Bonds:                   9
##########                         Heavy_Atoms:                  23
##########                    Molecular_Weight:             336.286
##########                DOCK_Rotatable_Bonds:                   9
##########                       Formal_Charge:         -0.00999999
##########                     HBond_Acceptors:                   9
##########                        HBond_Donors:                   2
##########                         Heavy_Atoms:                  23
##########                          Grid_Score:          -31.009024
##########                     Grid_vdw_energy:          -27.376966
##########                      Grid_es_energy:           -3.632057
##########           Internal_energy_repulsive:           21.666338

@<TRIPOS>MOLECULE
ZINC000338927927
 39 39 1 0 0
SMALL
USER_CHARGES


@<TRIPOS>ATOM
      1 C1         -7.8282    3.0317   67.1412 C.3     1  <0>        -0.1600
      2 C2         -8.5388    2.2632   66.0253 C.3     1  <0>        -0.1100
      3 C3         -7.6166    1.1627   65.4968 C.3     1  <0>        -0.1000
      4 H4         -6.7434    1.6150   65.0267 H       1  <0>         0.1400
      5 C5         -8.3581    0.3298   64.4831 C.2     1  <0>         0.5200
      6 O6         -8.4835   -0.8643   64.6543 O.2     1  <0>        -0.4700
      7 N7         -8.8818    0.9119   63.3861 N.am    1  <0>        -0.6700
      8 C8         -9.5702    0.1387   62.4449 C.ar    1  <0>         0.2200
      9 C9         -8.8658   -0.6493   61.5442 C.ar    1  <0>        -0.2300
     10 C10        -9.5462   -1.4144   60.6128 C.ar    1  <0>         0.1700
     11 F11        -8.8588   -2.1803   59.7375 F       1  <0>        -0.1300
     12 C12       -10.9291   -1.3965   60.5773 C.ar    1  <0>        -0.2500
     13 C13       -11.6379   -0.6095   61.4767 C.ar    1  <0>         0.2600
     14 N14       -13.0340   -0.5913   61.4403 N.pl3   1  <0>        -0.7400
     15 C15       -13.7843   -1.8489   61.4820 C.3     1  <0>         0.0800
     16 C16       -14.6555   -1.9647   60.2297 C.3     1  <0>         0.4500
     17 F17       -14.9568   -3.3103   59.9939 F       1  <0>        -0.1800
     18 F18       -15.8417   -1.2474   60.4188 F       1  <0>        -0.1700
     19 F19       -13.9647   -1.4420   59.1310 F       1  <0>        -0.1800
     20 C20       -10.9576    0.1544   62.4147 C.ar    1  <0>        -0.2000
     21 C21        -7.1741    0.2861   66.6400 C.2     1  <0>         0.4600
     22 O22        -7.9750   -0.4209   67.2043 O.2     1  <0>        -0.4600
     23 O23        -5.8902    0.2909   67.0314 O.3     1  <0>        -0.3500
     24 C24        -4.9934    1.1990   66.3391 C.3     1  <0>         0.0300
     25 H25        -6.9152    3.4799   66.7494 H       1  <0>         0.0600
     26 H26        -8.4852    3.8158   67.5177 H       1  <0>         0.0600
     27 H27        -7.5781    2.3471   67.9516 H       1  <0>         0.0800
     28 H28        -9.4519    1.8151   66.4171 H       1  <0>         0.0800
     29 H29        -8.7888    2.9479   65.2149 H       1  <0>         0.0800
     30 H30        -8.7816    1.8670   63.2492 H       1  <0>         0.4200
     31 H31        -7.7863   -0.6647   61.5702 H       1  <0>         0.1400
     32 H32       -11.4581   -1.9942   59.8498 H       1  <0>         0.1400
     33 H33       -13.5067    0.2539   61.3874 H       1  <0>         0.4100
     34 H34       -13.0878   -2.6865   61.5187 H       1  <0>         0.1100
     35 H35       -14.4183   -1.8645   62.3684 H       1  <0>         0.1100
     36 H36       -11.5068    0.7666   63.1145 H       1  <0>         0.1500
     37 H37        -3.9891    1.1029   66.7518 H       1  <0>         0.1000
     38 H38        -4.9750    0.9526   65.2775 H       1  <0>         0.0600
     39 H39        -5.3427    2.2234   66.4683 H       1  <0>         0.0600
@<TRIPOS>BOND
     1     1     2    1
     2     1    25    1
     3     1    26    1
     4     1    27    1
     5     2     3    1
     6     2    28    1
     7     2    29    1
     8     3     4    1
     9     3     5    1
    10     3    21    1
    11     5     6    2
    12     5     7   am
    13     7     8    1
    14     7    30    1
    15     8    20   ar
    16     8     9   ar
    17     9    10   ar
    18     9    31    1
    19    10    11    1
    20    10    12   ar
    21    12    13   ar
    22    12    32    1
    23    13    14    1
    24    13    20   ar
    25    14    15    1
    26    14    33    1
    27    15    16    1
    28    15    34    1
    29    15    35    1
    30    16    17    1
    31    16    18    1
    32    16    19    1
    33    20    36    1
    34    21    22    2
    35    21    23    1
    36    23    24    1
    37    24    37    1
    38    24    38    1
    39    24    39    1
@<TRIPOS>SUBSTRUCTURE
     1 <0>         1 TEMP              0 ****  ****    0 ROOT


##########                                Name:    ZINC000508571532
##########                DOCK_Rotatable_Bonds:                   9
##########                         Heavy_Atoms:                  30
##########                    Molecular_Weight:             422.407
##########                DOCK_Rotatable_Bonds:                   9
##########                       Formal_Charge:           0.0100001
##########                     HBond_Acceptors:                  10
##########                        HBond_Donors:                   0
##########                         Heavy_Atoms:                  30
##########                          Grid_Score:          -30.986525
##########                     Grid_vdw_energy:          -31.592072
##########                      Grid_es_energy:            0.605547
##########           Internal_energy_repulsive:           24.862230

@<TRIPOS>MOLECULE
ZINC000508571532
 51 53 1 0 0
SMALL
USER_CHARGES


@<TRIPOS>ATOM
      1 C1         -5.9156    2.5838   51.6469 C.3     1  ZINC000508571532    0.0300
      2 O2         -6.2133    1.2175   51.9409 O.3     1  ZINC000508571532   -0.3200
      3 C3         -7.5269    0.8740   52.0152 C.ar    1  ZINC000508571532    0.0900
      4 C4         -7.8868   -0.4480   52.2306 C.ar    1  ZINC000508571532   -0.1700
      5 C5         -9.2211   -0.7971   52.3061 C.ar    1  ZINC000508571532   -0.1100
      6 C6        -10.2010    0.1746   52.1669 C.ar    1  ZINC000508571532    0.0900
      7 O7        -11.5146   -0.1691   52.2407 O.3     1  ZINC000508571532   -0.3100
      8 C8        -11.8243   -1.5632   52.1894 C.3     1  ZINC000508571532    0.1500
      9 C9        -11.7879   -2.1376   53.5822 C.2     1  ZINC000508571532    0.1700
     10 N10       -10.9293   -3.0053   54.0376 N.2     1  ZINC000508571532   -0.2500
     11 N11       -11.1882   -3.2784   55.2665 N.2     1  ZINC000508571532   -0.3000
     12 C12       -12.2345   -2.5938   55.6644 C.2     1  ZINC000508571532    0.3500
     13 N13       -12.8091   -2.6257   56.9251 N.3     1  ZINC000508571532   -0.4600
     14 C14       -13.3394   -3.9617   57.2283 C.3     1  ZINC000508571532    0.0300
     15 C15       -11.8508   -2.1944   57.9515 C.3     1  ZINC000508571532    0.1100
     16 C16       -12.5526   -1.3194   58.9580 C.ar    1  ZINC000508571532   -0.0900
     17 C17       -13.7213   -0.6693   58.6130 C.ar    1  ZINC000508571532   -0.0600
     18 C18       -14.3655    0.1341   59.5359 C.ar    1  ZINC000508571532   -0.1300
     19 C19       -13.8421    0.2883   60.8061 C.ar    1  ZINC000508571532   -0.0700
     20 C20       -12.6734   -0.3602   61.1564 C.ar    1  ZINC000508571532   -0.1900
     21 C21       -12.0282   -1.1708   60.2341 C.ar    1  ZINC000508571532    0.1100
     22 O22       -10.8786   -1.8098   60.5762 O.3     1  ZINC000508571532   -0.3100
     23 C23        -9.7042   -1.0063   60.7072 C.3     1  ZINC000508571532    0.6000
     24 F24        -8.5908   -1.7331   60.2718 F       1  ZINC000508571532   -0.1600
     25 F25        -9.8402    0.1487   59.9296 F       1  ZINC000508571532   -0.1300
     26 F26        -9.5316   -0.6479   62.0484 F       1  ZINC000508571532   -0.1600
     27 N27       -12.6464   -1.8401   54.6042 N.pl3   1  ZINC000508571532   -0.4500
     28 C28       -13.7793   -0.9121   54.5657 C.3     1  ZINC000508571532    0.0800
     29 C29        -9.8412    1.4968   51.9529 C.ar    1  ZINC000508571532   -0.1700
     30 C30        -8.5067    1.8465   51.8812 C.ar    1  ZINC000508571532   -0.1100
     31 H31        -4.8348    2.7220   51.6170 H       1  ZINC000508571532    0.1000
     32 H32        -6.3426    2.8489   50.6797 H       1  ZINC000508571532    0.0600
     33 H33        -6.3422    3.2231   52.4200 H       1  ZINC000508571532    0.0600
     34 H34        -7.1237   -1.2046   52.3390 H       1  ZINC000508571532    0.1400
     35 H35        -9.5014   -1.8266   52.4731 H       1  ZINC000508571532    0.1300
     36 H36       -12.8196   -1.6990   51.7663 H       1  ZINC000508571532    0.0800
     37 H37       -11.0915   -2.0755   51.5660 H       1  ZINC000508571532    0.1000
     38 H38       -12.5133   -4.6641   57.3385 H       1  ZINC000508571532    0.0600
     39 H39       -13.9106   -3.9240   58.1558 H       1  ZINC000508571532    0.0800
     40 H40       -13.9879   -4.2883   56.4153 H       1  ZINC000508571532    0.0700
     41 H41       -11.4393   -3.0692   58.4550 H       1  ZINC000508571532    0.0700
     42 H42       -11.0437   -1.6323   57.4817 H       1  ZINC000508571532    0.0900
     43 H43       -14.1322   -0.7882   57.6212 H       1  ZINC000508571532    0.1400
     44 H44       -15.2788    0.6422   59.2639 H       1  ZINC000508571532    0.1300
     45 H45       -14.3468    0.9165   61.5250 H       1  ZINC000508571532    0.1400
     46 H46       -12.2647   -0.2391   62.1487 H       1  ZINC000508571532    0.1400
     47 H47       -13.4277    0.0993   54.7699 H       1  ZINC000508571532    0.0900
     48 H48       -14.2417   -0.9437   53.5791 H       1  ZINC000508571532    0.0900
     49 H49       -14.5116   -1.2012   55.3195 H       1  ZINC000508571532    0.1000
     50 H50       -10.6042    2.2535   51.8448 H       1  ZINC000508571532    0.1400
     51 H51        -8.2265    2.8761   51.7145 H       1  ZINC000508571532    0.1400
@<TRIPOS>BOND
     1     1     2    1
     2     1    31    1
     3     1    32    1
     4     1    33    1
     5     2     3    1
     6     3    30   ar
     7     3     4   ar
     8     4     5   ar
     9     4    34    1
    10     5     6   ar
    11     5    35    1
    12     6     7    1
    13     6    29   ar
    14     7     8    1
    15     8     9    1
    16     8    36    1
    17     8    37    1
    18     9    27    1
    19     9    10    2
    20    10    11    1
    21    11    12    2
    22    12    13    1
    23    12    27    1
    24    13    14    1
    25    13    15    1
    26    14    38    1
    27    14    39    1
    28    14    40    1
    29    15    16    1
    30    15    41    1
    31    15    42    1
    32    16    21   ar
    33    16    17   ar
    34    17    18   ar
    35    17    43    1
    36    18    19   ar
    37    18    44    1
    38    19    20   ar
    39    19    45    1
    40    20    21   ar
    41    20    46    1
    42    21    22    1
    43    22    23    1
    44    23    24    1
    45    23    25    1
    46    23    26    1
    47    27    28    1
    48    28    47    1
    49    28    48    1
    50    28    49    1
    51    29    30   ar
    52    29    50    1
    53    30    51    1
@<TRIPOS>SUBSTRUCTURE
     1 ZINC000508571532        1 TEMP              0 ****  ****    0 ROOT


##########                                Name:    ZINC000182378855
##########                DOCK_Rotatable_Bonds:                   8
##########                         Heavy_Atoms:                  27
##########                    Molecular_Weight:              394.83
##########                DOCK_Rotatable_Bonds:                   8
##########                       Formal_Charge:          -0.0200001
##########                     HBond_Acceptors:                   8
##########                        HBond_Donors:                   1
##########                         Heavy_Atoms:                  27
##########                          Grid_Score:          -30.969557
##########                     Grid_vdw_energy:          -31.026466
##########                      Grid_es_energy:            0.056910
##########           Internal_energy_repulsive:           10.137269

@<TRIPOS>MOLECULE
ZINC000182378855
 47 49 1 0 0
SMALL
USER_CHARGES


@<TRIPOS>ATOM
      1 C1        -14.3625    0.2535   46.7522 C.3     1  ZINC000182378855    0.0300
      2 O2        -14.6383    1.2951   47.6909 O.3     1  ZINC000182378855   -0.3900
      3 C3        -13.5343    1.6220   48.5373 C.3     1  ZINC000182378855    0.0600
      4 C4        -13.9379    2.7496   49.4894 C.3     1  ZINC000182378855    0.0700
      5 O5        -12.8284    3.0888   50.3236 O.3     1  ZINC000182378855   -0.2900
      6 C6        -11.8107    3.7757   49.7462 C.ar    1  ZINC000182378855    0.3300
      7 C7        -10.5499    3.7516   50.3271 C.ar    1  ZINC000182378855   -0.1300
      8 C8         -9.5129    4.4635   49.7211 C.ar    1  ZINC000182378855   -0.0600
      9 C9         -8.1507    4.4672   50.3038 C.2     1  ZINC000182378855    0.5600
     10 O10        -7.4748    5.4761   50.2622 O.2     1  ZINC000182378855   -0.5200
     11 N11        -7.6612    3.3515   50.8799 N.am    1  ZINC000182378855   -0.7100
     12 C12        -6.3149    3.3556   51.4577 C.3     1  ZINC000182378855    0.1200
     13 H13        -6.1627    4.2494   52.0626 H       1  ZINC000182378855    0.1100
     14 C14        -5.2475    3.2674   50.3439 C.3     1  ZINC000182378855   -0.1700
     15 C15        -4.4978    1.9509   50.6460 C.3     1  ZINC000182378855    0.0400
     16 O16        -5.4381    1.1555   51.4004 O.3     1  ZINC000182378855   -0.3600
     17 C17        -6.0838    2.0819   52.3008 C.3     1  ZINC000182378855    0.1100
     18 H18        -5.4354    2.3010   53.1491 H       1  ZINC000182378855    0.1000
     19 C19        -7.3996    1.5212   52.7756 C.ar    1  ZINC000182378855   -0.0500
     20 C20        -8.0292    2.0737   53.8751 C.ar    1  ZINC000182378855   -0.1100
     21 C21        -9.2391    1.5642   54.3088 C.ar    1  ZINC000182378855   -0.0800
     22 C22        -9.8153    0.4939   53.6495 C.ar    1  ZINC000182378855   -0.0700
     23 Cl23      -11.3313   -0.1500   54.1977 Cl      1  ZINC000182378855   -0.0400
     24 C24        -9.1817   -0.0639   52.5504 C.ar    1  ZINC000182378855    0.1200
     25 F25        -9.7432   -1.1093   51.9047 F       1  ZINC000182378855   -0.1200
     26 C26        -7.9733    0.4512   52.1145 C.ar    1  ZINC000182378855   -0.1300
     27 C27        -9.7946    5.1731   48.5484 C.ar    1  ZINC000182378855   -0.1900
     28 C28       -11.0763    5.1442   48.0371 C.ar    1  ZINC000182378855    0.1400
     29 N29       -12.0298    4.4560   48.6340 N.ar    1  ZINC000182378855   -0.5200
     30 H30       -14.0879   -0.6551   47.2880 H       1  ZINC000182378855    0.0400
     31 H31       -15.2498    0.0649   46.1478 H       1  ZINC000182378855    0.0900
     32 H32       -13.5396    0.5564   46.1047 H       1  ZINC000182378855    0.0400
     33 H33       -13.2471    0.7437   49.1153 H       1  ZINC000182378855    0.0600
     34 H34       -12.6918    1.9464   47.9265 H       1  ZINC000182378855    0.0700
     35 H35       -14.2382    3.6234   48.9111 H       1  ZINC000182378855    0.0800
     36 H36       -14.7716    2.4204   50.1097 H       1  ZINC000182378855    0.0800
     37 H37       -10.3741    3.1914   51.2335 H       1  ZINC000182378855    0.1600
     38 H38        -8.2003    2.5457   50.9120 H       1  ZINC000182378855    0.4000
     39 H39        -5.7216    3.2207   49.3635 H       1  ZINC000182378855    0.0900
     40 H40        -4.5662    4.1163   50.3998 H       1  ZINC000182378855    0.0900
     41 H41        -4.2312    1.4447   49.7183 H       1  ZINC000182378855    0.1000
     42 H42        -3.6052    2.1500   51.2389 H       1  ZINC000182378855    0.0700
     43 H43        -7.5774    2.9065   54.3935 H       1  ZINC000182378855    0.1500
     44 H44        -9.7322    1.9995   55.1654 H       1  ZINC000182378855    0.1500
     45 H45        -7.4787    0.0176   51.2578 H       1  ZINC000182378855    0.1500
     46 H46        -9.0192    5.7357   48.0498 H       1  ZINC000182378855    0.1400
     47 H47       -11.3004    5.6896   47.1323 H       1  ZINC000182378855    0.1700
@<TRIPOS>BOND
     1     1     2    1
     2     1    30    1
     3     1    31    1
     4     1    32    1
     5     2     3    1
     6     3     4    1
     7     3    33    1
     8     3    34    1
     9     4     5    1
    10     4    35    1
    11     4    36    1
    12     5     6    1
    13     6    29   ar
    14     6     7   ar
    15     7     8   ar
    16     7    37    1
    17     8     9    1
    18     8    27   ar
    19     9    10    2
    20     9    11   am
    21    11    12    1
    22    11    38    1
    23    12    13    1
    24    12    17    1
    25    12    14    1
    26    14    15    1
    27    14    39    1
    28    14    40    1
    29    15    16    1
    30    15    41    1
    31    15    42    1
    32    16    17    1
    33    17    18    1
    34    17    19    1
    35    19    26   ar
    36    19    20   ar
    37    20    21   ar
    38    20    43    1
    39    21    22   ar
    40    21    44    1
    41    22    23    1
    42    22    24   ar
    43    24    25    1
    44    24    26   ar
    45    26    45    1
    46    27    28   ar
    47    27    46    1
    48    28    29   ar
    49    28    47    1
@<TRIPOS>SUBSTRUCTURE
     1 ZINC000182378855        1 TEMP              0 ****  ****    0 ROOT


##########                                Name:    ZINC000432253027
##########                DOCK_Rotatable_Bonds:                   8
##########                         Heavy_Atoms:                  26
##########                    Molecular_Weight:             401.436
##########                DOCK_Rotatable_Bonds:                   8
##########                       Formal_Charge:         1.19209e-07
##########                     HBond_Acceptors:                  11
##########                        HBond_Donors:                   0
##########                         Heavy_Atoms:                  26
##########                          Grid_Score:          -30.954338
##########                     Grid_vdw_energy:          -28.637150
##########                      Grid_es_energy:           -2.317189
##########           Internal_energy_repulsive:            7.691215

@<TRIPOS>MOLECULE
ZINC000432253027
 40 42 1 0 0
SMALL
USER_CHARGES


@<TRIPOS>ATOM
      1 C1         -8.4693   -1.1659   60.6947 C.3     1  ZINC000432253027    0.0300
      2 O2         -9.5889   -0.3462   60.3530 O.3     1  ZINC000432253027   -0.3100
      3 C3        -10.3068   -0.7081   59.2583 C.ar    1  ZINC000432253027    0.1500
      4 C4        -11.1137   -1.8334   59.2969 C.ar    1  ZINC000432253027   -0.2100
      5 C5        -11.8436   -2.2012   58.1821 C.ar    1  ZINC000432253027   -0.0600
      6 C6        -11.7744   -1.4499   57.0219 C.ar    1  ZINC000432253027   -0.1600
      7 C7        -10.9754   -0.3264   56.9676 C.ar    1  ZINC000432253027   -0.0300
      8 C8        -10.2387    0.0580   58.0880 C.ar    1  ZINC000432253027   -0.0600
      9 C9         -9.3809    1.2603   58.0363 C.2     1  ZINC000432253027    0.1200
     10 N10        -8.2948    1.3840   57.3280 N.2     1  ZINC000432253027   -0.4600
     11 C11        -7.6589    2.5309   57.4062 C.2     1  ZINC000432253027    0.0800
     12 C12        -6.3917    2.7974   56.6352 C.3     1  ZINC000432253027   -0.0200
     13 S13        -6.8081    3.3063   54.9446 S.3     1  ZINC000432253027   -0.1700
     14 C14        -5.1815    3.5445   54.1778 C.3     1  ZINC000432253027   -0.0300
     15 C15        -5.3598    3.9633   52.7412 C.2     1  ZINC000432253027    0.2100
     16 N16        -5.4811    5.1889   52.2926 N.2     1  ZINC000432253027   -0.2700
     17 N17        -5.6140    5.1327   51.0124 N.2     1  ZINC000432253027   -0.0500
     18 N18        -5.5805    3.9031   50.6325 N.2     1  ZINC000432253027   -0.0700
     19 N19        -5.4196    3.1517   51.6691 N.pl3   1  ZINC000432253027   -0.3100
     20 C20        -5.3289    1.6897   51.6783 C.3     1  ZINC000432253027    0.0700
     21 C21        -6.7362    1.0911   51.6338 C.3     1  ZINC000432253027    0.4300
     22 F22        -6.6486   -0.3051   51.6129 F       1  ZINC000432253027   -0.1500
     23 F23        -7.4515    1.4965   52.7658 F       1  ZINC000432253027   -0.1700
     24 F24        -7.3953    1.5343   50.4821 F       1  ZINC000432253027   -0.1700
     25 C25        -8.2057    3.4469   58.2114 C.2     1  ZINC000432253027   -0.2500
     26 S26        -9.6672    2.7592   58.9166 S.3     1  ZINC000432253027    0.1600
     27 H27        -7.9853   -0.7666   61.5860 H       1  ZINC000432253027    0.1000
     28 H28        -8.8099   -2.1826   60.8909 H       1  ZINC000432253027    0.0600
     29 H29        -7.7590   -1.1738   59.8680 H       1  ZINC000432253027    0.0600
     30 H30       -11.1723   -2.4243   60.1990 H       1  ZINC000432253027    0.1400
     31 H31       -12.4708   -3.0797   58.2164 H       1  ZINC000432253027    0.1300
     32 H32       -12.3480   -1.7443   56.1555 H       1  ZINC000432253027    0.1300
     33 H33       -10.9238    0.2572   56.0602 H       1  ZINC000432253027    0.1400
     34 H34        -5.8284    3.5915   57.1254 H       1  ZINC000432253027    0.1000
     35 H35        -5.7881    1.8903   56.6034 H       1  ZINC000432253027    0.1100
     36 H36        -4.6355    4.3187   54.7169 H       1  ZINC000432253027    0.1100
     37 H37        -4.6210    2.6104   54.2171 H       1  ZINC000432253027    0.1300
     38 H38        -4.7641    1.3552   50.8081 H       1  ZINC000432253027    0.1500
     39 H39        -4.8235    1.3627   52.5871 H       1  ZINC000432253027    0.1600
     40 H40        -7.8204    4.4389   58.3953 H       1  ZINC000432253027    0.1800
@<TRIPOS>BOND
     1     1     2    1
     2     1    27    1
     3     1    28    1
     4     1    29    1
     5     2     3    1
     6     3     8   ar
     7     3     4   ar
     8     4     5   ar
     9     4    30    1
    10     5     6   ar
    11     5    31    1
    12     6     7   ar
    13     6    32    1
    14     7     8   ar
    15     7    33    1
    16     8     9    1
    17     9    26    1
    18     9    10    2
    19    10    11    1
    20    11    12    1
    21    11    25    2
    22    12    13    1
    23    12    34    1
    24    12    35    1
    25    13    14    1
    26    14    15    1
    27    14    36    1
    28    14    37    1
    29    15    19    1
    30    15    16    2
    31    16    17    1
    32    17    18    2
    33    18    19    1
    34    19    20    1
    35    20    21    1
    36    20    38    1
    37    20    39    1
    38    21    22    1
    39    21    23    1
    40    21    24    1
    41    25    26    1
    42    25    40    1
@<TRIPOS>SUBSTRUCTURE
     1 ZINC000432253027        1 TEMP              0 ****  ****    0 ROOT


##########                                Name:    ZINC000499369364
##########                DOCK_Rotatable_Bonds:                   9
##########                         Heavy_Atoms:                  25
##########                    Molecular_Weight:             384.527
##########                DOCK_Rotatable_Bonds:                   9
##########                       Formal_Charge:        -5.88596e-07
##########                     HBond_Acceptors:                  10
##########                        HBond_Donors:                   1
##########                         Heavy_Atoms:                  25
##########                          Grid_Score:          -30.946953
##########                     Grid_vdw_energy:          -30.694733
##########                      Grid_es_energy:           -0.252221
##########           Internal_energy_repulsive:           27.630503

@<TRIPOS>MOLECULE
ZINC000499369364
 49 51 1 0 0
SMALL
USER_CHARGES


@<TRIPOS>ATOM
      1 C1        -11.5841    1.0271   58.2873 C.3     1  ZINC000499369364   -0.1500
      2 C2        -10.5788   -0.1224   58.1930 C.3     1  ZINC000499369364   -0.1000
      3 C3         -9.7180   -0.1522   59.4575 C.3     1  ZINC000499369364   -0.1500
      4 C4        -11.3310   -1.4477   58.0567 C.3     1  ZINC000499369364    0.1500
      5 H5        -10.6150   -2.2673   57.9948 H       1  ZINC000499369364    0.0900
      6 C6        -12.2332   -1.6497   59.2757 C.3     1  ZINC000499369364   -0.1700
      7 N7        -12.1498   -1.4218   56.8421 N.am    1  ZINC000499369364   -0.7200
      8 C8        -12.5223   -2.5768   56.2557 C.2     1  ZINC000499369364    0.5100
      9 O9        -12.1785   -3.6375   56.7328 O.2     1  ZINC000499369364   -0.5100
     10 C10       -13.3660   -2.5502   55.0074 C.3     1  ZINC000499369364    0.1200
     11 H11       -13.5212   -3.5745   54.6686 H       1  ZINC000499369364    0.1200
     12 C12       -14.7384   -1.9263   55.3485 C.3     1  ZINC000499369364   -0.0800
     13 S13       -14.4922   -0.1863   54.7958 S.3     1  ZINC000499369364   -0.2400
     14 C14       -13.3569   -0.6501   53.4231 C.3     1  ZINC000499369364    0.1400
     15 N15       -12.6492   -1.8191   53.9737 N.am    1  ZINC000499369364   -0.6000
     16 C16       -11.4247   -2.1887   53.5491 C.2     1  ZINC000499369364    0.5600
     17 O17       -10.8827   -3.1600   54.0326 O.2     1  ZINC000499369364   -0.5000
     18 C18       -10.7288   -1.3950   52.4734 C.3     1  ZINC000499369364   -0.1500
     19 S19       -10.1477    0.1747   53.1622 S.3     1  ZINC000499369364    0.1300
     20 C20        -8.5956    0.3137   52.3399 C.2     1  ZINC000499369364    0.2000
     21 N21        -7.6699   -0.6171   52.2552 N.2     1  ZINC000499369364   -0.3400
     22 N22        -6.6613   -0.1886   51.5854 N.2     1  ZINC000499369364   -0.0300
     23 N23        -6.8626    1.0247   51.1993 N.2     1  ZINC000499369364   -0.0800
     24 N24        -8.1336    1.3966   51.6712 N.pl3   1  ZINC000499369364   -0.3300
     25 C25        -8.8094    2.6832   51.4869 C.3     1  ZINC000499369364    0.0500
     26 C26        -7.9414    3.9432   51.4843 C.3     1  ZINC000499369364   -0.1500
     27 C27        -8.5547    3.4340   50.1783 C.3     1  ZINC000499369364   -0.1600
     28 H28       -11.0483    1.9714   58.3844 H       1  ZINC000499369364    0.0600
     29 H29       -12.1973    1.0483   57.3865 H       1  ZINC000499369364    0.0600
     30 H30       -12.2229    0.8806   59.1583 H       1  ZINC000499369364    0.0600
     31 H31        -9.9400    0.0241   57.3220 H       1  ZINC000499369364    0.0800
     32 H32        -9.1822    0.7921   59.5546 H       1  ZINC000499369364    0.0600
     33 H33       -10.3567   -0.2987   60.3285 H       1  ZINC000499369364    0.0600
     34 H34        -9.0019   -0.9712   59.3904 H       1  ZINC000499369364    0.0500
     35 H35       -12.9492   -0.8302   59.3376 H       1  ZINC000499369364    0.0600
     36 H36       -12.7692   -2.5939   59.1786 H       1  ZINC000499369364    0.0600
     37 H37       -11.6241   -1.6690   60.1794 H       1  ZINC000499369364    0.0700
     38 H38       -12.4238   -0.5734   56.4599 H       1  ZINC000499369364    0.4000
     39 H39       -15.5380   -2.4067   54.7845 H       1  ZINC000499369364    0.1200
     40 H40       -14.9344   -1.9728   56.4197 H       1  ZINC000499369364    0.1300
     41 H41       -13.9203   -0.9225   52.5307 H       1  ZINC000499369364    0.1100
     42 H42       -12.6585    0.1589   53.2088 H       1  ZINC000499369364    0.1200
     43 H43        -9.8786   -1.9628   52.0953 H       1  ZINC000499369364    0.1300
     44 H44       -11.4257   -1.1985   51.6586 H       1  ZINC000499369364    0.1300
     45 H45        -9.8048    2.7584   51.9247 H       1  ZINC000499369364    0.1600
     46 H46        -8.3656    4.8476   51.9206 H       1  ZINC000499369364    0.1200
     47 H47        -6.8675    3.8148   51.6197 H       1  ZINC000499369364    0.1200
     48 H48        -7.8842    2.9706   49.4546 H       1  ZINC000499369364    0.1100
     49 H49        -9.3823    4.0033   49.7554 H       1  ZINC000499369364    0.1200
@<TRIPOS>BOND
     1     1     2    1
     2     1    28    1
     3     1    29    1
     4     1    30    1
     5     2     3    1
     6     2     4    1
     7     2    31    1
     8     3    32    1
     9     3    33    1
    10     3    34    1
    11     4     5    1
    12     4     6    1
    13     4     7    1
    14     6    35    1
    15     6    36    1
    16     6    37    1
    17     7     8   am
    18     7    38    1
    19     8     9    2
    20     8    10    1
    21    10    11    1
    22    10    15    1
    23    10    12    1
    24    12    13    1
    25    12    39    1
    26    12    40    1
    27    13    14    1
    28    14    15    1
    29    14    41    1
    30    14    42    1
    31    15    16   am
    32    16    17    2
    33    16    18    1
    34    18    19    1
    35    18    43    1
    36    18    44    1
    37    19    20    1
    38    20    24    1
    39    20    21    2
    40    21    22    1
    41    22    23    2
    42    23    24    1
    43    24    25    1
    44    25    27    1
    45    25    26    1
    46    25    45    1
    47    26    27    1
    48    26    46    1
    49    26    47    1
    50    27    48    1
    51    27    49    1
@<TRIPOS>SUBSTRUCTURE
     1 ZINC000499369364        1 TEMP              0 ****  ****    0 ROOT


##########                                Name:    ZINC000534890536
##########                DOCK_Rotatable_Bonds:                   6
##########                         Heavy_Atoms:                  30
##########                    Molecular_Weight:             411.476
##########                DOCK_Rotatable_Bonds:                   6
##########                       Formal_Charge:          0.00999957
##########                     HBond_Acceptors:                   7
##########                        HBond_Donors:                   1
##########                         Heavy_Atoms:                  30
##########                          Grid_Score:          -30.919844
##########                     Grid_vdw_energy:          -29.913744
##########                      Grid_es_energy:           -1.006099
##########           Internal_energy_repulsive:           16.011969

@<TRIPOS>MOLECULE
ZINC000534890536
 56 59 1 0 0
SMALL
USER_CHARGES


@<TRIPOS>ATOM
      1 C1        -11.1809   -1.8857   53.4647 C.3     1  ZINC000534890536    0.0300
      2 O2        -10.0964   -1.7615   52.5425 O.3     1  ZINC000534890536   -0.3200
      3 C3         -9.4054   -0.5914   52.5566 C.ar    1  ZINC000534890536    0.1300
      4 C4         -8.4152   -0.3578   51.6135 C.ar    1  ZINC000534890536   -0.2100
      5 C5         -7.7145    0.8326   51.6297 C.ar    1  ZINC000534890536   -0.0700
      6 C6         -7.9991    1.7907   52.5851 C.ar    1  ZINC000534890536   -0.1100
      7 C7         -7.2328    3.0882   52.6009 C.3     1  ZINC000534890536   -0.0600
      8 H8         -7.4104    3.6333   53.5279 H       1  ZINC000534890536    0.0900
      9 C9         -7.5882    3.9591   51.3668 C.3     1  ZINC000534890536   -0.1200
     10 C10        -6.3201    4.8168   51.1724 C.3     1  ZINC000534890536    0.1000
     11 N11        -5.2084    4.1055   51.8203 N.am    1  ZINC000534890536   -0.6400
     12 C12        -3.9336    4.5376   51.8899 C.2     1  ZINC000534890536    0.7300
     13 O13        -3.6244    5.6021   51.3902 O.2     1  ZINC000534890536   -0.5700
     14 N14        -3.0017    3.7899   52.5135 N.am    1  ZINC000534890536   -0.7300
     15 C15        -1.6157    4.2589   52.5876 C.3     1  ZINC000534890536    0.1600
     16 H16        -1.5630    5.2896   52.2370 H       1  ZINC000534890536    0.1200
     17 C17        -1.1326    4.1900   54.0384 C.3     1  ZINC000534890536   -0.1300
     18 C18         0.3838    4.4169   54.0556 C.3     1  ZINC000534890536   -0.1300
     19 C19         1.0649    3.2254   53.3812 C.3     1  ZINC000534890536    0.1100
     20 N20         0.4573    2.9578   52.0837 N.am    1  ZINC000534890536   -0.5600
     21 C21         1.1860    2.1949   51.1626 C.ar    1  ZINC000534890536    0.1000
     22 C22         0.9658    0.8285   51.0626 C.ar    1  ZINC000534890536   -0.0800
     23 C23         1.6859    0.0784   50.1525 C.ar    1  ZINC000534890536   -0.1200
     24 C24         2.6258    0.6867   49.3416 C.ar    1  ZINC000534890536   -0.0800
     25 C25         2.8490    2.0483   49.4375 C.ar    1  ZINC000534890536   -0.1500
     26 C26         2.1281    2.8061   50.3418 C.ar    1  ZINC000534890536    0.1100
     27 F27         2.3456    4.1362   50.4354 F       1  ZINC000534890536   -0.1300
     28 C28        -0.7487    3.3920   51.7205 C.2     1  ZINC000534890536    0.5000
     29 O29        -1.1693    3.0721   50.6287 O.2     1  ZINC000534890536   -0.5100
     30 C30        -5.7190    2.8418   52.3831 C.3     1  ZINC000534890536    0.1300
     31 C31        -8.9858    1.5605   53.5260 C.ar    1  ZINC000534890536   -0.0700
     32 C32        -9.6929    0.3738   53.5108 C.ar    1  ZINC000534890536   -0.1500
     33 H33       -10.8062   -1.7791   54.4827 H       1  ZINC000534890536    0.0600
     34 H34       -11.9181   -1.1078   53.2656 H       1  ZINC000534890536    0.0600
     35 H35       -11.6458   -2.8649   53.3493 H       1  ZINC000534890536    0.1000
     36 H36        -8.1920   -1.1060   50.8674 H       1  ZINC000534890536    0.1300
     37 H37        -6.9435    1.0151   50.8957 H       1  ZINC000534890536    0.1300
     38 H38        -7.7685    3.3336   50.4926 H       1  ZINC000534890536    0.0800
     39 H39        -8.4521    4.5899   51.5760 H       1  ZINC000534890536    0.0900
     40 H40        -6.1135    4.9372   50.1089 H       1  ZINC000534890536    0.0700
     41 H41        -6.4574    5.7926   51.6382 H       1  ZINC000534890536    0.0700
     42 H42        -3.2486    2.9413   52.9132 H       1  ZINC000534890536    0.4000
     43 H43        -1.6261    4.9635   54.6268 H       1  ZINC000534890536    0.0900
     44 H44        -1.3616    3.2091   54.4553 H       1  ZINC000534890536    0.0800
     45 H45         0.6230    5.3308   53.5118 H       1  ZINC000534890536    0.0800
     46 H46         0.7294    4.5007   55.0860 H       1  ZINC000534890536    0.1000
     47 H47         2.1238    3.4455   53.2447 H       1  ZINC000534890536    0.0800
     48 H48         0.9620    2.3451   54.0158 H       1  ZINC000534890536    0.0700
     49 H49         0.2324    0.3516   51.6958 H       1  ZINC000534890536    0.1300
     50 H50         1.5144   -0.9851   50.0748 H       1  ZINC000534890536    0.1300
     51 H51         3.1873    0.0974   48.6319 H       1  ZINC000534890536    0.1400
     52 H52         3.5840    2.5207   48.8025 H       1  ZINC000534890536    0.1400
     53 H53        -5.2287    2.6236   53.3319 H       1  ZINC000534890536    0.0800
     54 H54        -5.5659    2.0237   51.6791 H       1  ZINC000534890536    0.0700
     55 H55        -9.2065    2.3105   54.2710 H       1  ZINC000534890536    0.1300
     56 H56       -10.4635    0.1944   54.2458 H       1  ZINC000534890536    0.1300
@<TRIPOS>BOND
     1     1     2    1
     2     1    33    1
     3     1    34    1
     4     1    35    1
     5     2     3    1
     6     3    32   ar
     7     3     4   ar
     8     4     5   ar
     9     4    36    1
    10     5     6   ar
    11     5    37    1
    12     6     7    1
    13     6    31   ar
    14     7     8    1
    15     7    30    1
    16     7     9    1
    17     9    10    1
    18     9    38    1
    19     9    39    1
    20    10    11    1
    21    10    40    1
    22    10    41    1
    23    11    12   am
    24    11    30    1
    25    12    13    2
    26    12    14   am
    27    14    15    1
    28    14    42    1
    29    15    16    1
    30    15    28    1
    31    15    17    1
    32    17    18    1
    33    17    43    1
    34    17    44    1
    35    18    19    1
    36    18    45    1
    37    18    46    1
    38    19    20    1
    39    19    47    1
    40    19    48    1
    41    20    21    1
    42    20    28   am
    43    21    26   ar
    44    21    22   ar
    45    22    23   ar
    46    22    49    1
    47    23    24   ar
    48    23    50    1
    49    24    25   ar
    50    24    51    1
    51    25    26   ar
    52    25    52    1
    53    26    27    1
    54    28    29    2
    55    30    53    1
    56    30    54    1
    57    31    32   ar
    58    31    55    1
    59    32    56    1
@<TRIPOS>SUBSTRUCTURE
     1 ZINC000534890536        1 TEMP              0 ****  ****    0 ROOT


##########                                Name:    ZINC000579444893
##########                DOCK_Rotatable_Bonds:                   8
##########                         Heavy_Atoms:                  26
##########                    Molecular_Weight:             365.494
##########                DOCK_Rotatable_Bonds:                   8
##########                       Formal_Charge:         -0.00999993
##########                     HBond_Acceptors:                   7
##########                        HBond_Donors:                   1
##########                         Heavy_Atoms:                  26
##########                          Grid_Score:          -30.914392
##########                     Grid_vdw_energy:          -30.317287
##########                      Grid_es_energy:           -0.597105
##########           Internal_energy_repulsive:           35.368034

@<TRIPOS>MOLECULE
ZINC000579444893
 58 60 1 0 0
SMALL
USER_CHARGES


@<TRIPOS>ATOM
      1 C1         -6.6122    5.2406   50.9540 C.3     1  ZINC000579444893   -0.1600
      2 C2         -6.0551    3.8344   50.7235 C.3     1  ZINC000579444893    0.1700
      3 H3         -5.6825    3.7540   49.7023 H       1  ZINC000579444893    0.0900
      4 N4         -4.9604    3.5827   51.6639 N.am    1  ZINC000579444893   -0.7400
      5 C5         -3.7584    3.1796   51.2067 C.2     1  ZINC000579444893    0.7100
      6 O6         -3.5830    3.0234   50.0136 O.2     1  ZINC000579444893   -0.5900
      7 N7         -2.7508    2.9496   52.0718 N.am    1  ZINC000579444893   -0.6300
      8 C8         -2.9616    3.1396   53.5090 C.3     1  ZINC000579444893    0.0800
      9 C9         -1.4448    2.5097   51.5748 C.3     1  ZINC000579444893    0.1100
     10 C10        -0.4235    3.6337   51.7605 C.3     1  ZINC000579444893    0.0600
     11 H11        -0.5059    4.0471   52.7656 H       1  ZINC000579444893    0.1000
     12 C12        -0.6672    4.7424   50.7151 C.3     1  ZINC000579444893   -0.1600
     13 C13         0.7700    5.1804   50.3286 C.3     1  ZINC000579444893    0.0800
     14 H14         1.1696    5.8911   51.0520 H       1  ZINC000579444893    0.1000
     15 F15         0.8005    5.7145   49.0359 F       1  ZINC000579444893   -0.2000
     16 C16         1.5349    3.8348   50.3920 C.3     1  ZINC000579444893    0.0200
     17 N17         0.9392    3.1145   51.5418 N.3     1  ZINC000579444893   -0.5000
     18 C18         0.9180    1.6654   51.3016 C.3     1  ZINC000579444893    0.1000
     19 C19         2.3100    1.1901   50.9738 C.2     1  ZINC000579444893    0.0800
     20 C20         3.4212    1.4035   51.7159 C.2     1  ZINC000579444893   -0.2500
     21 C21         4.4988    0.7981   51.0611 C.2     1  ZINC000579444893    0.0400
     22 N22         4.0505    0.2414   49.9652 N.2     1  ZINC000579444893   -0.2900
     23 N23         2.6706    0.4706   49.8907 N.pl3   1  ZINC000579444893   -0.3700
     24 C24         1.7781    0.0172   48.8210 C.3     1  ZINC000579444893    0.0900
     25 C25        -7.1643    2.8038   50.9442 C.3     1  ZINC000579444893   -0.1000
     26 C26        -6.6016    1.3664   50.8176 C.3     1  ZINC000579444893   -0.1200
     27 C27        -7.6178    0.5286   51.6328 C.3     1  ZINC000579444893   -0.1300
     28 C28        -7.9784    1.4316   52.8304 C.3     1  ZINC000579444893   -0.1300
     29 C29        -7.6899    2.8783   52.3926 C.3     1  ZINC000579444893   -0.1200
     30 H30        -5.8029    5.9676   50.8872 H       1  ZINC000579444893    0.0600
     31 H31        -7.3634    5.4625   50.1958 H       1  ZINC000579444893    0.0700
     32 H32        -7.0675    5.2935   51.9429 H       1  ZINC000579444893    0.0500
     33 H33        -5.1007    3.7062   52.6158 H       1  ZINC000579444893    0.4000
     34 H34        -3.3994    2.2366   53.9345 H       1  ZINC000579444893    0.0600
     35 H35        -2.0062    3.3429   53.9926 H       1  ZINC000579444893    0.0800
     36 H36        -3.6362    3.9806   53.6692 H       1  ZINC000579444893    0.0700
     37 H37        -1.1219    1.6298   52.1312 H       1  ZINC000579444893    0.0900
     38 H38        -1.5235    2.2616   50.5164 H       1  ZINC000579444893    0.0900
     39 H39        -1.1954    4.3455   49.8483 H       1  ZINC000579444893    0.1100
     40 H40        -1.2178    5.5734   51.1560 H       1  ZINC000579444893    0.0800
     41 H41         1.3870    3.2705   49.4712 H       1  ZINC000579444893    0.0600
     42 H42         2.5968    4.0096   50.5646 H       1  ZINC000579444893    0.0900
     43 H43         0.5604    1.1541   52.1954 H       1  ZINC000579444893    0.1100
     44 H44         0.2528    1.4453   50.4665 H       1  ZINC000579444893    0.0500
     45 H45         3.4679    1.9457   52.6488 H       1  ZINC000579444893    0.1500
     46 H46         5.5238    0.7920   51.4011 H       1  ZINC000579444893    0.1800
     47 H47         1.3409   -0.9429   49.0951 H       1  ZINC000579444893    0.0800
     48 H48         0.9842    0.7496   48.6753 H       1  ZINC000579444893    0.0800
     49 H49         2.3454   -0.0925   47.8966 H       1  ZINC000579444893    0.0900
     50 H50        -7.9768    2.9615   50.2349 H       1  ZINC000579444893    0.0800
     51 H51        -6.5862    1.0479   49.7754 H       1  ZINC000579444893    0.0700
     52 H52        -5.6064    1.3010   51.2573 H       1  ZINC000579444893    0.0700
     53 H53        -8.5040    0.3163   51.0347 H       1  ZINC000579444893    0.0700
     54 H54        -7.1587   -0.3978   51.9780 H       1  ZINC000579444893    0.0700
     55 H55        -9.0340    1.3197   53.0779 H       1  ZINC000579444893    0.0600
     56 H56        -7.3629    1.1726   53.6919 H       1  ZINC000579444893    0.0600
     57 H57        -6.9346    3.3213   53.0416 H       1  ZINC000579444893    0.0600
     58 H58        -8.6056    3.4685   52.4276 H       1  ZINC000579444893    0.0600
@<TRIPOS>BOND
     1     1     2    1
     2     1    30    1
     3     1    31    1
     4     1    32    1
     5     2     3    1
     6     2     4    1
     7     2    25    1
     8     4     5   am
     9     4    33    1
    10     5     6    2
    11     5     7   am
    12     7     8    1
    13     7     9    1
    14     8    34    1
    15     8    35    1
    16     8    36    1
    17     9    10    1
    18     9    37    1
    19     9    38    1
    20    10    11    1
    21    10    17    1
    22    10    12    1
    23    12    13    1
    24    12    39    1
    25    12    40    1
    26    13    14    1
    27    13    15    1
    28    13    16    1
    29    16    17    1
    30    16    41    1
    31    16    42    1
    32    17    18    1
    33    18    19    1
    34    18    43    1
    35    18    44    1
    36    19    23    1
    37    19    20    2
    38    20    21    1
    39    20    45    1
    40    21    22    2
    41    21    46    1
    42    22    23    1
    43    23    24    1
    44    24    47    1
    45    24    48    1
    46    24    49    1
    47    25    29    1
    48    25    26    1
    49    25    50    1
    50    26    27    1
    51    26    51    1
    52    26    52    1
    53    27    28    1
    54    27    53    1
    55    27    54    1
    56    28    29    1
    57    28    55    1
    58    28    56    1
    59    29    57    1
    60    29    58    1
@<TRIPOS>SUBSTRUCTURE
     1 ZINC000579444893        1 TEMP              0 ****  ****    0 ROOT


##########                                Name:    ZINC000504638019
##########                DOCK_Rotatable_Bonds:                   8
##########                         Heavy_Atoms:                  24
##########                    Molecular_Weight:             328.454
##########                DOCK_Rotatable_Bonds:                   8
##########                       Formal_Charge:        -1.49012e-08
##########                     HBond_Acceptors:                   4
##########                        HBond_Donors:                   1
##########                         Heavy_Atoms:                  24
##########                          Grid_Score:          -30.910343
##########                     Grid_vdw_energy:          -29.077911
##########                      Grid_es_energy:           -1.832432
##########           Internal_energy_repulsive:           14.022567

@<TRIPOS>MOLECULE
ZINC000504638019
 52 53 1 0 0
SMALL
USER_CHARGES


@<TRIPOS>ATOM
      1 C1        -12.6214   -3.7675   57.0832 C.3     1  ZINC000504638019   -0.1200
      2 C2        -11.6816   -2.8230   57.7874 C.ar    1  ZINC000504638019   -0.0900
      3 C3        -10.4978   -3.2963   58.3215 C.ar    1  ZINC000504638019   -0.1200
      4 C4         -9.6358   -2.4299   58.9673 C.ar    1  ZINC000504638019   -0.1100
      5 C5         -9.9575   -1.0901   59.0787 C.ar    1  ZINC000504638019   -0.0900
      6 C6         -9.0179   -0.1457   59.7833 C.3     1  ZINC000504638019   -0.0600
      7 H7         -8.2363   -0.7169   60.2839 H       1  ZINC000504638019    0.0900
      8 C8         -8.3835    0.7996   58.7609 C.3     1  ZINC000504638019   -0.1500
      9 C9         -9.7958    0.6700   60.8179 C.3     1  ZINC000504638019    0.1300
     10 N10        -9.1089    0.6019   62.1101 N.am    1  ZINC000504638019   -0.7000
     11 C11        -9.8180    0.4179   63.2414 C.2     1  ZINC000504638019    0.5100
     12 O12       -11.0253    0.3071   63.1894 O.2     1  ZINC000504638019   -0.5100
     13 C13        -9.1175    0.3502   64.5598 C.2     1  ZINC000504638019    0.5100
     14 O14        -8.4729   -0.6348   64.8546 O.2     1  ZINC000504638019   -0.5200
     15 N15        -9.2016    1.3832   65.4214 N.am    1  ZINC000504638019   -0.5800
     16 C16        -9.9796    2.5724   65.0655 C.3     1  ZINC000504638019    0.0600
     17 C17        -8.5149    1.3169   66.7138 C.3     1  ZINC000504638019    0.1100
     18 C18        -7.0055    1.4404   66.4962 C.3     1  ZINC000504638019   -0.1000
     19 H19        -6.6588    0.6248   65.8616 H       1  ZINC000504638019    0.0800
     20 C20        -6.2851    1.3843   67.8451 C.3     1  ZINC000504638019   -0.0800
     21 C21        -4.8436    1.7665   67.6776 C.2     1  ZINC000504638019   -0.1500
     22 C22        -4.3739    2.3898   66.6449 C.2     1  ZINC000504638019   -0.1600
     23 C23        -5.2032    2.8083   65.4663 C.3     1  ZINC000504638019   -0.0900
     24 C24        -6.6891    2.7842   65.8277 C.3     1  ZINC000504638019   -0.1100
     25 C25       -11.1407   -0.6165   58.5434 C.ar    1  ZINC000504638019   -0.1100
     26 C26       -12.0009   -1.4823   57.8942 C.ar    1  ZINC000504638019   -0.1200
     27 H27       -12.3677   -3.8101   56.0241 H       1  ZINC000504638019    0.0700
     28 H28       -12.5304   -4.7626   57.5189 H       1  ZINC000504638019    0.0700
     29 H29       -13.6458   -3.4133   57.1975 H       1  ZINC000504638019    0.0700
     30 H30       -10.2464   -4.3430   58.2345 H       1  ZINC000504638019    0.1200
     31 H31        -8.7112   -2.7998   59.3853 H       1  ZINC000504638019    0.1200
     32 H32        -7.7040    1.4827   59.2706 H       1  ZINC000504638019    0.0600
     33 H33        -7.8293    0.2185   58.0239 H       1  ZINC000504638019    0.0600
     34 H34        -9.1651    1.3708   58.2603 H       1  ZINC000504638019    0.0600
     35 H35        -9.8549    1.7085   60.4922 H       1  ZINC000504638019    0.0800
     36 H36       -10.8020    0.2632   60.9194 H       1  ZINC000504638019    0.0800
     37 H37        -8.1437    0.6892   62.1515 H       1  ZINC000504638019    0.4100
     38 H38       -11.0299    2.4040   65.3033 H       1  ZINC000504638019    0.0600
     39 H39        -9.6122    3.4294   65.6300 H       1  ZINC000504638019    0.0700
     40 H40        -9.8757    2.7686   63.9983 H       1  ZINC000504638019    0.1100
     41 H41        -8.8582    2.1326   67.3500 H       1  ZINC000504638019    0.0900
     42 H42        -8.7359    0.3638   67.1942 H       1  ZINC000504638019    0.0900
     43 H43        -6.7637    2.0752   68.5393 H       1  ZINC000504638019    0.0800
     44 H44        -6.3464    0.3726   68.2458 H       1  ZINC000504638019    0.0600
     45 H45        -4.1553    1.5056   68.4679 H       1  ZINC000504638019    0.1000
     46 H46        -3.3195    2.6234   66.6306 H       1  ZINC000504638019    0.1000
     47 H47        -4.9201    3.8170   65.1652 H       1  ZINC000504638019    0.0700
     48 H48        -5.0255    2.1229   64.6378 H       1  ZINC000504638019    0.0700
     49 H49        -7.2878    2.8995   64.9241 H       1  ZINC000504638019    0.0700
     50 H50        -6.9103    3.5938   66.5233 H       1  ZINC000504638019    0.0700
     51 H51       -11.3919    0.4303   58.6300 H       1  ZINC000504638019    0.1200
     52 H52       -12.9253   -1.1123   57.4759 H       1  ZINC000504638019    0.1200
@<TRIPOS>BOND
     1     1     2    1
     2     1    27    1
     3     1    28    1
     4     1    29    1
     5     2    26   ar
     6     2     3   ar
     7     3     4   ar
     8     3    30    1
     9     4     5   ar
    10     4    31    1
    11     5     6    1
    12     5    25   ar
    13     6     7    1
    14     6     8    1
    15     6     9    1
    16     8    32    1
    17     8    33    1
    18     8    34    1
    19     9    10    1
    20     9    35    1
    21     9    36    1
    22    10    11   am
    23    10    37    1
    24    11    12    2
    25    11    13    1
    26    13    14    2
    27    13    15   am
    28    15    16    1
    29    15    17    1
    30    16    38    1
    31    16    39    1
    32    16    40    1
    33    17    18    1
    34    17    41    1
    35    17    42    1
    36    18    19    1
    37    18    24    1
    38    18    20    1
    39    20    21    1
    40    20    43    1
    41    20    44    1
    42    21    22    2
    43    21    45    1
    44    22    23    1
    45    22    46    1
    46    23    24    1
    47    23    47    1
    48    23    48    1
    49    24    49    1
    50    24    50    1
    51    25    26   ar
    52    25    51    1
    53    26    52    1
@<TRIPOS>SUBSTRUCTURE
     1 ZINC000504638019        1 TEMP              0 ****  ****    0 ROOT


##########                                Name:    ZINC000821214121
##########                DOCK_Rotatable_Bonds:                  10
##########                         Heavy_Atoms:                  23
##########                    Molecular_Weight:             338.434
##########                DOCK_Rotatable_Bonds:                  10
##########                       Formal_Charge:          0.00999954
##########                     HBond_Acceptors:                   9
##########                        HBond_Donors:                   3
##########                         Heavy_Atoms:                  23
##########                          Grid_Score:          -30.903639
##########                     Grid_vdw_energy:          -29.852112
##########                      Grid_es_energy:           -1.051527
##########           Internal_energy_repulsive:            7.200138

@<TRIPOS>MOLECULE
ZINC000821214121
 45 46 1 0 0
SMALL
USER_CHARGES


@<TRIPOS>ATOM
      1 C1        -10.7903    2.2047   61.5695 C.3     1  ZINC000821214121   -0.1500
      2 C2         -9.4850    1.5161   61.1659 C.3     1  ZINC000821214121    0.0500
      3 N3         -9.7741    0.4441   60.2039 N.3     1  ZINC000821214121   -0.5200
      4 C4         -8.8443    0.4918   59.0675 C.3     1  ZINC000821214121    0.0600
      5 C5         -9.3411    1.5156   58.0448 C.3     1  ZINC000821214121   -0.1200
      6 C6         -8.2233    2.5145   57.7389 C.3     1  ZINC000821214121    0.0800
      7 O7         -7.1603    1.8459   57.0571 O.3     1  ZINC000821214121   -0.5700
      8 C8         -9.7410   -0.8716   60.8562 C.3     1  ZINC000821214121    0.0400
      9 C9        -10.7161   -1.7956   60.1732 C.2     1  ZINC000821214121    0.5000
     10 O10       -10.6340   -2.9945   60.3396 O.2     1  ZINC000821214121   -0.4800
     11 N11       -11.6794   -1.2903   59.3777 N.am    1  ZINC000821214121   -0.6300
     12 C12       -12.5822   -2.1448   58.7475 C.2     1  ZINC000821214121    0.0800
     13 C13       -13.8226   -2.4637   59.2141 C.2     1  ZINC000821214121   -0.1000
     14 C14       -14.3715   -1.9242   60.4812 C.2     1  ZINC000821214121    0.2900
     15 N15       -14.9476   -0.7473   60.6458 N.2     1  ZINC000821214121   -0.3300
     16 N16       -15.3030   -0.6792   62.0030 N.pl3   1  ZINC000821214121   -0.2900
     17 N17       -14.9292   -1.7852   62.5498 N.2     1  ZINC000821214121    0.0200
     18 N18       -14.3798   -2.5419   61.6676 N.2     1  ZINC000821214121   -0.2900
     19 C19       -14.5297   -3.3427   58.3939 C.2     1  ZINC000821214121   -0.0500
     20 C20       -15.9194   -3.8204   58.7281 C.3     1  ZINC000821214121   -0.1000
     21 C21       -13.8880   -3.7275   57.2958 C.2     1  ZINC000821214121   -0.2400
     22 C22       -14.4431   -4.6697   56.2589 C.3     1  ZINC000821214121   -0.0800
     23 S23       -12.3018   -2.9740   57.2223 S.3     1  ZINC000821214121    0.2600
     24 H24       -11.3138    2.5436   60.6754 H       1  ZINC000821214121    0.0700
     25 H25       -11.4194    1.5005   62.1140 H       1  ZINC000821214121    0.0500
     26 H26       -10.5676    3.0607   62.2065 H       1  ZINC000821214121    0.0600
     27 H27        -8.8163    2.2448   60.7078 H       1  ZINC000821214121    0.0900
     28 H28        -9.0094    1.0921   62.0502 H       1  ZINC000821214121    0.0400
     29 H29        -7.8543    0.7812   59.4200 H       1  ZINC000821214121    0.0400
     30 H30        -8.7907   -0.4916   58.6005 H       1  ZINC000821214121    0.0800
     31 H31        -9.6306    1.0023   57.1278 H       1  ZINC000821214121    0.0800
     32 H32       -10.2018    2.0468   58.4510 H       1  ZINC000821214121    0.0700
     33 H33        -8.6129    3.3141   57.1089 H       1  ZINC000821214121    0.0400
     34 H34        -7.8482    2.9367   58.6712 H       1  ZINC000821214121    0.0500
     35 H35        -6.3824    2.3993   56.9028 H       1  ZINC000821214121    0.3800
     36 H36        -8.7359   -1.2873   60.7851 H       1  ZINC000821214121    0.0700
     37 H37       -10.0163   -0.7641   61.9054 H       1  ZINC000821214121    0.1200
     38 H38       -11.7445   -0.3317   59.2437 H       1  ZINC000821214121    0.4200
     39 H39       -15.7462    0.0613   62.4458 H       1  ZINC000821214121    0.4700
     40 H40       -16.6517   -3.1381   58.2966 H       1  ZINC000821214121    0.0700
     41 H41       -16.0683   -4.8195   58.3188 H       1  ZINC000821214121    0.0700
     42 H42       -16.0431   -3.8491   59.8106 H       1  ZINC000821214121    0.0900
     43 H43       -14.9745   -4.0993   55.4971 H       1  ZINC000821214121    0.0700
     44 H44       -13.6259   -5.2220   55.7951 H       1  ZINC000821214121    0.0700
     45 H45       -15.1305   -5.3692   56.7346 H       1  ZINC000821214121    0.0800
@<TRIPOS>BOND
     1     1     2    1
     2     1    24    1
     3     1    25    1
     4     1    26    1
     5     2     3    1
     6     2    27    1
     7     2    28    1
     8     3     4    1
     9     3     8    1
    10     4     5    1
    11     4    29    1
    12     4    30    1
    13     5     6    1
    14     5    31    1
    15     5    32    1
    16     6     7    1
    17     6    33    1
    18     6    34    1
    19     7    35    1
    20     8     9    1
    21     8    36    1
    22     8    37    1
    23     9    10    2
    24     9    11   am
    25    11    12    1
    26    11    38    1
    27    12    23    1
    28    12    13    2
    29    13    14    1
    30    13    19    1
    31    14    18    1
    32    14    15    2
    33    15    16    1
    34    16    17    1
    35    16    39    1
    36    17    18    2
    37    19    20    1
    38    19    21    2
    39    20    40    1
    40    20    41    1
    41    20    42    1
    42    21    22    1
    43    21    23    1
    44    22    43    1
    45    22    44    1
    46    22    45    1
@<TRIPOS>SUBSTRUCTURE
     1 ZINC000821214121        1 TEMP              0 ****  ****    0 ROOT


##########                                Name:    ZINC001492779707
##########                DOCK_Rotatable_Bonds:                   8
##########                         Heavy_Atoms:                  27
##########                    Molecular_Weight:             374.483
##########                DOCK_Rotatable_Bonds:                   8
##########                       Formal_Charge:           0.0199998
##########                     HBond_Acceptors:                   7
##########                        HBond_Donors:                   0
##########                         Heavy_Atoms:                  27
##########                          Grid_Score:          -30.891830
##########                     Grid_vdw_energy:          -30.536562
##########                      Grid_es_energy:           -0.355268
##########           Internal_energy_repulsive:            8.260347

@<TRIPOS>MOLECULE
ZINC001492779707
 57 59 1 0 0
SMALL
USER_CHARGES


@<TRIPOS>ATOM
      1 C1        -14.8262   -3.2309   58.6956 C.3     1  ZINC001492779707   -0.0700
      2 C2        -14.2429   -3.1850   57.3069 C.2     1  ZINC001492779707    0.1800
      3 N3        -14.6049   -3.9185   56.2926 N.2     1  ZINC001492779707   -0.2900
      4 N4        -13.9003   -3.6208   55.2596 N.2     1  ZINC001492779707   -0.3100
      5 C5        -13.0441   -2.6735   55.5620 C.2     1  ZINC001492779707    0.3400
      6 N6        -12.1197   -2.0949   54.7069 N.3     1  ZINC001492779707   -0.4600
      7 C7        -11.4296   -3.1167   53.9083 C.3     1  ZINC001492779707    0.0300
      8 C8        -12.7575   -1.0931   53.8423 C.3     1  ZINC001492779707    0.1100
      9 C9        -11.8948    0.1411   53.7826 C.ar    1  ZINC001492779707   -0.0400
     10 C10       -12.1252    1.1876   54.6561 C.ar    1  ZINC001492779707   -0.1300
     11 C11       -11.3353    2.3216   54.6040 C.ar    1  ZINC001492779707   -0.0800
     12 C12       -10.3140    2.4112   53.6786 C.ar    1  ZINC001492779707   -0.2100
     13 C13       -10.0808    1.3623   52.8007 C.ar    1  ZINC001492779707    0.1300
     14 O14        -9.0761    1.4479   51.8894 O.3     1  ZINC001492779707   -0.3100
     15 C15        -7.8189    0.8745   52.2541 C.3     1  ZINC001492779707    0.0800
     16 C16        -7.5920   -0.4086   51.4521 C.3     1  ZINC001492779707   -0.1500
     17 C17        -6.6974    1.8701   51.9517 C.3     1  ZINC001492779707   -0.1800
     18 C18       -10.8708    0.2237   52.8587 C.ar    1  ZINC001492779707   -0.1400
     19 N19       -13.2398   -2.3617   56.8759 N.pl3   1  ZINC001492779707   -0.4600
     20 C20       -12.5182   -1.3595   57.6642 C.3     1  ZINC001492779707    0.1200
     21 C21       -11.3255   -2.0193   58.3591 C.3     1  ZINC001492779707   -0.1200
     22 C22       -10.5179   -0.9556   59.1057 C.3     1  ZINC001492779707    0.0600
     23 H23       -10.2367   -0.1605   58.4152 H       1  ZINC001492779707    0.0800
     24 C24       -11.3653   -0.3724   60.2402 C.3     1  ZINC001492779707    0.0300
     25 O25       -10.5671    0.5389   61.0015 O.3     1  ZINC001492779707   -0.3800
     26 C26        -9.3887   -0.0556   61.5537 C.3     1  ZINC001492779707    0.0200
     27 C27        -8.5413   -0.6388   60.4193 C.3     1  ZINC001492779707    0.0300
     28 O28        -9.3387   -1.5498   59.6567 O.3     1  ZINC001492779707   -0.3800
     29 H29       -15.6625   -2.5349   58.7616 H       1  ZINC001492779707    0.0900
     30 H30       -15.1761   -4.2408   58.9095 H       1  ZINC001492779707    0.1000
     31 H31       -14.0618   -2.9501   59.4202 H       1  ZINC001492779707    0.0800
     32 H32       -12.1414   -3.5926   53.2337 H       1  ZINC001492779707    0.0500
     33 H33       -10.6354   -2.6484   53.3270 H       1  ZINC001492779707    0.0900
     34 H34       -11.0001   -3.8674   54.5718 H       1  ZINC001492779707    0.0700
     35 H35       -12.8765   -1.5020   52.8389 H       1  ZINC001492779707    0.0700
     36 H36       -13.7356   -0.8335   54.2471 H       1  ZINC001492779707    0.0900
     37 H37       -12.9235    1.1196   55.3803 H       1  ZINC001492779707    0.1200
     38 H38       -11.5175    3.1379   55.2873 H       1  ZINC001492779707    0.1300
     39 H39        -9.6976    3.2971   53.6379 H       1  ZINC001492779707    0.1300
     40 H40        -7.8210    0.6418   53.3189 H       1  ZINC001492779707    0.0700
     41 H41        -7.5899   -0.1759   50.3872 H       1  ZINC001492779707    0.0700
     42 H42        -6.6331   -0.8460   51.7302 H       1  ZINC001492779707    0.0800
     43 H43        -8.3911   -1.1179   51.6675 H       1  ZINC001492779707    0.0700
     44 H44        -6.8591    2.7842   52.5230 H       1  ZINC001492779707    0.0600
     45 H45        -5.7384    1.4326   52.2299 H       1  ZINC001492779707    0.0700
     46 H46        -6.6953    2.1029   50.8869 H       1  ZINC001492779707    0.0700
     47 H47       -10.6913   -0.5941   52.1766 H       1  ZINC001492779707    0.1300
     48 H48       -12.1625   -0.5668   57.0060 H       1  ZINC001492779707    0.1000
     49 H49       -13.1870   -0.9365   58.4137 H       1  ZINC001492779707    0.1000
     50 H50       -11.6850   -2.7659   59.0672 H       1  ZINC001492779707    0.0900
     51 H51       -10.6916   -2.5004   57.6143 H       1  ZINC001492779707    0.0800
     52 H52       -12.2215    0.1560   59.8207 H       1  ZINC001492779707    0.1100
     53 H53       -11.7140   -1.1784   60.8859 H       1  ZINC001492779707    0.0600
     54 H54        -8.8134    0.7023   62.0855 H       1  ZINC001492779707    0.1100
     55 H55        -9.6709   -0.8508   62.2435 H       1  ZINC001492779707    0.0600
     56 H56        -8.1927    0.1672   59.7735 H       1  ZINC001492779707    0.0600
     57 H57        -7.6851   -1.1671   60.8386 H       1  ZINC001492779707    0.1100
@<TRIPOS>BOND
     1     1     2    1
     2     1    29    1
     3     1    30    1
     4     1    31    1
     5     2    19    1
     6     2     3    2
     7     3     4    1
     8     4     5    2
     9     5     6    1
    10     5    19    1
    11     6     7    1
    12     6     8    1
    13     7    32    1
    14     7    33    1
    15     7    34    1
    16     8     9    1
    17     8    35    1
    18     8    36    1
    19     9    18   ar
    20     9    10   ar
    21    10    11   ar
    22    10    37    1
    23    11    12   ar
    24    11    38    1
    25    12    13   ar
    26    12    39    1
    27    13    14    1
    28    13    18   ar
    29    14    15    1
    30    15    16    1
    31    15    17    1
    32    15    40    1
    33    16    41    1
    34    16    42    1
    35    16    43    1
    36    17    44    1
    37    17    45    1
    38    17    46    1
    39    18    47    1
    40    19    20    1
    41    20    21    1
    42    20    48    1
    43    20    49    1
    44    21    22    1
    45    21    50    1
    46    21    51    1
    47    22    23    1
    48    22    28    1
    49    22    24    1
    50    24    25    1
    51    24    52    1
    52    24    53    1
    53    25    26    1
    54    26    27    1
    55    26    54    1
    56    26    55    1
    57    27    28    1
    58    27    56    1
    59    27    57    1
@<TRIPOS>SUBSTRUCTURE
     1 ZINC001492779707        1 TEMP              0 ****  ****    0 ROOT


##########                                Name:    ZINC000174621331
##########                DOCK_Rotatable_Bonds:                   8
##########                         Heavy_Atoms:                  25
##########                    Molecular_Weight:             366.438
##########                DOCK_Rotatable_Bonds:                   8
##########                       Formal_Charge:        -5.96046e-08
##########                     HBond_Acceptors:                   8
##########                        HBond_Donors:                   3
##########                         Heavy_Atoms:                  25
##########                          Grid_Score:          -30.888571
##########                     Grid_vdw_energy:          -29.355200
##########                      Grid_es_energy:           -1.533371
##########           Internal_energy_repulsive:           16.600025

@<TRIPOS>MOLECULE
ZINC000174621331
 47 48 1 0 0
SMALL
USER_CHARGES


@<TRIPOS>ATOM
      1 C1         -9.2654   -0.0841   62.4489 C.3     1  ZINC000174621331    0.0300
      2 O2        -10.1413    0.9150   61.9227 O.3     1  ZINC000174621331   -0.3800
      3 C3         -9.6534    1.5511   60.7398 C.3     1  ZINC000174621331    0.0500
      4 C4         -9.4428    0.5019   59.6464 C.3     1  ZINC000174621331    0.2400
      5 H5         -8.7553   -0.2640   60.0053 H       1  ZINC000174621331    0.1300
      6 N6        -10.7277   -0.1151   59.3076 N.am    1  ZINC000174621331   -0.7200
      7 C7        -10.7723   -1.4001   58.9035 C.2     1  ZINC000174621331    0.5600
      8 O8         -9.7465   -2.0465   58.8186 O.2     1  ZINC000174621331   -0.5300
      9 C9        -12.0691   -2.0234   58.5634 C.ar    1  ZINC000174621331   -0.1600
     10 C10       -12.2719   -2.5725   57.2965 C.ar    1  ZINC000174621331   -0.0200
     11 C11       -13.4844   -3.1531   56.9857 C.ar    1  ZINC000174621331   -0.1100
     12 C12       -13.7053   -3.7465   55.6182 C.3     1  ZINC000174621331   -0.1200
     13 C13       -14.4976   -3.1921   57.9268 C.ar    1  ZINC000174621331    0.0400
     14 C14       -15.8191   -3.8284   57.5805 C.3     1  ZINC000174621331   -0.1600
     15 C15       -14.3028   -2.6499   59.1850 C.ar    1  ZINC000174621331   -0.6800
     16 S16       -15.5998   -2.7054   60.3765 S.o2    1  ZINC000174621331    2.7000
     17 N17       -14.9233   -2.3812   61.8529 N.am    1  ZINC000174621331   -1.2500
     18 O18       -16.4621   -1.6152   60.0820 O.2     1  ZINC000174621331   -0.9500
     19 O19       -16.0421   -4.0550   60.4253 O.2     1  ZINC000174621331   -0.9600
     20 C20       -13.0940   -2.0704   59.5100 C.ar    1  ZINC000174621331    0.0400
     21 C21        -8.8643    1.1621   58.4214 C.2     1  ZINC000174621331   -0.0200
     22 C22        -9.5431    1.4803   57.3045 C.2     1  ZINC000174621331   -0.1900
     23 C23        -8.6172    2.0773   56.4185 C.2     1  ZINC000174621331   -0.2100
     24 C24        -7.4279    2.0883   57.0469 C.2     1  ZINC000174621331    0.0000
     25 C25        -6.1395    2.6325   56.4857 C.3     1  ZINC000174621331   -0.0800
     26 O26        -7.5849    1.5381   58.2620 O.3     1  ZINC000174621331   -0.1600
     27 H27        -9.1146   -0.8644   61.7029 H       1  ZINC000174621331    0.0400
     28 H28        -8.3062    0.3691   62.6996 H       1  ZINC000174621331    0.0400
     29 H29        -9.7072   -0.5189   63.3455 H       1  ZINC000174621331    0.0900
     30 H30       -10.3785    2.2902   60.3993 H       1  ZINC000174621331    0.0700
     31 H31        -8.7061    2.0447   60.9570 H       1  ZINC000174621331    0.0700
     32 H32       -11.5462    0.4011   59.3743 H       1  ZINC000174621331    0.4100
     33 H33       -11.4818   -2.5426   56.5609 H       1  ZINC000174621331    0.1400
     34 H34       -13.4109   -4.7960   55.6256 H       1  ZINC000174621331    0.0800
     35 H35       -14.7597   -3.6668   55.3534 H       1  ZINC000174621331    0.0800
     36 H36       -13.1051   -3.2059   54.8863 H       1  ZINC000174621331    0.0700
     37 H37       -15.7896   -4.8881   57.8339 H       1  ZINC000174621331    0.1100
     38 H38       -16.6153   -3.3419   58.1439 H       1  ZINC000174621331    0.0700
     39 H39       -16.0080   -3.7153   56.5129 H       1  ZINC000174621331    0.0900
     40 H40       -14.2270   -2.9578   62.2044 H       1  ZINC000174621331    0.4200
     41 H41       -15.2235   -1.6148   62.3660 H       1  ZINC000174621331    0.4200
     42 H42       -12.9432   -1.6479   60.4924 H       1  ZINC000174621331    0.1600
     43 H43       -10.5937    1.3115   57.1199 H       1  ZINC000174621331    0.1500
     44 H44        -8.8248    2.4522   55.4272 H       1  ZINC000174621331    0.1500
     45 H45        -6.0465    3.6869   56.7459 H       1  ZINC000174621331    0.0800
     46 H46        -5.2987    2.0795   56.9040 H       1  ZINC000174621331    0.0800
     47 H47        -6.1416    2.5248   55.4009 H       1  ZINC000174621331    0.0900
@<TRIPOS>BOND
     1     1     2    1
     2     1    27    1
     3     1    28    1
     4     1    29    1
     5     2     3    1
     6     3     4    1
     7     3    30    1
     8     3    31    1
     9     4     5    1
    10     4     6    1
    11     4    21    1
    12     6     7   am
    13     6    32    1
    14     7     8    2
    15     7     9    1
    16     9    20   ar
    17     9    10   ar
    18    10    11   ar
    19    10    33    1
    20    11    12    1
    21    11    13   ar
    22    12    34    1
    23    12    35    1
    24    12    36    1
    25    13    14    1
    26    13    15   ar
    27    14    37    1
    28    14    38    1
    29    14    39    1
    30    15    16    1
    31    15    20   ar
    32    16    17   am
    33    16    18    2
    34    16    19    2
    35    17    40    1
    36    17    41    1
    37    20    42    1
    38    21    26    1
    39    21    22    2
    40    22    23    1
    41    22    43    1
    42    23    24    2
    43    23    44    1
    44    24    25    1
    45    24    26    1
    46    25    45    1
    47    25    46    1
    48    25    47    1
@<TRIPOS>SUBSTRUCTURE
     1 ZINC000174621331        1 TEMP              0 ****  ****    0 ROOT


##########                                Name:    ZINC001342153661
##########                DOCK_Rotatable_Bonds:                   8
##########                         Heavy_Atoms:                  29
##########                    Molecular_Weight:             395.548
##########                DOCK_Rotatable_Bonds:                   8
##########                       Formal_Charge:          -0.0400005
##########                     HBond_Acceptors:                   6
##########                        HBond_Donors:                   1
##########                         Heavy_Atoms:                  29
##########                          Grid_Score:          -30.825150
##########                     Grid_vdw_energy:          -30.269705
##########                      Grid_es_energy:           -0.555444
##########           Internal_energy_repulsive:           13.076825

@<TRIPOS>MOLECULE
ZINC001342153661
 62 65 1 0 0
SMALL
USER_CHARGES


@<TRIPOS>ATOM
      1 C1         -7.8833    1.9649   55.5275 C.2     1  ZINC001342153661   -0.1400
      2 C2         -8.9539    2.4244   54.9285 C.2     1  ZINC001342153661   -0.1600
      3 C3        -10.1942    2.7266   55.7293 C.3     1  ZINC001342153661   -0.1200
      4 C4         -8.9451    2.6506   53.4386 C.3     1  ZINC001342153661    0.1500
      5 N5         -8.7224    1.3756   52.7524 N.pl3   1  ZINC001342153661   -0.4700
      6 C6         -7.5582    0.9352   52.1861 C.2     1  ZINC001342153661    0.1800
      7 C7         -6.2468    1.6767   52.1489 C.3     1  ZINC001342153661   -0.0600
      8 C8         -6.0951    2.3773   50.7972 C.3     1  ZINC001342153661    0.1600
      9 H9         -6.1769    1.6427   49.9961 H       1  ZINC001342153661    0.1000
     10 O10        -7.1242    3.3580   50.6509 O.3     1  ZINC001342153661   -0.5400
     11 C11        -4.7477    3.0486   50.7276 C.ar    1  ZINC001342153661   -0.1700
     12 C12        -4.5826    4.3415   51.1996 C.ar    1  ZINC001342153661   -0.0600
     13 C13        -3.3247    4.9191   51.1157 C.ar    1  ZINC001342153661   -0.1700
     14 C14        -2.2850    4.1919   50.5682 C.ar    1  ZINC001342153661    0.1000
     15 N15        -2.4789    2.9635   50.1291 N.ar    1  ZINC001342153661   -0.4800
     16 C16        -3.6597    2.3809   50.1977 C.ar    1  ZINC001342153661    0.1100
     17 N17        -7.7929   -0.2445   51.6854 N.2     1  ZINC001342153661   -0.2700
     18 N18        -9.0165   -0.5770   51.8951 N.2     1  ZINC001342153661   -0.3200
     19 C19        -9.6320    0.3787   52.5507 C.2     1  ZINC001342153661    0.3600
     20 N20       -10.9576    0.3791   52.9545 N.3     1  ZINC001342153661   -0.4500
     21 C21       -11.1624   -0.5299   54.0895 C.3     1  ZINC001342153661    0.0500
     22 C22       -12.5988   -0.3953   54.6000 C.3     1  ZINC001342153661   -0.1200
     23 C23       -13.5718   -0.7355   53.4676 C.3     1  ZINC001342153661   -0.1200
     24 C24       -13.3052    0.1936   52.2800 C.3     1  ZINC001342153661   -0.0800
     25 H25       -13.4896    1.2260   52.5770 H       1  ZINC001342153661    0.0800
     26 C26       -14.2337   -0.1784   51.1221 C.3     1  ZINC001342153661   -0.0800
     27 C27       -15.7156   -0.0646   51.5577 C.3     1  ZINC001342153661   -0.1200
     28 C28       -16.4535    0.1351   50.2105 C.3     1  ZINC001342153661   -0.1300
     29 C29       -15.5094    1.0406   49.3928 C.3     1  ZINC001342153661   -0.1300
     30 C30       -14.0979    0.8412   49.9724 C.3     1  ZINC001342153661   -0.1200
     31 C31       -11.8483    0.0419   51.8368 C.3     1  ZINC001342153661    0.0800
     32 H32        -7.8895    1.8028   56.5953 H       1  ZINC001342153661    0.1000
     33 H33        -6.9958    1.7441   54.9530 H       1  ZINC001342153661    0.1100
     34 H34       -10.1248    3.7336   56.1405 H       1  ZINC001342153661    0.0700
     35 H35       -11.0695    2.6575   55.0834 H       1  ZINC001342153661    0.0600
     36 H36       -10.2856    2.0073   56.5432 H       1  ZINC001342153661    0.0700
     37 H37        -9.9035    3.0674   53.1288 H       1  ZINC001342153661    0.1000
     38 H38        -8.1463    3.3461   53.1814 H       1  ZINC001342153661    0.1000
     39 H39        -6.2263    2.4188   52.9471 H       1  ZINC001342153661    0.1100
     40 H40        -5.4268    0.9720   52.2869 H       1  ZINC001342153661    0.1000
     41 H41        -7.0542    3.8839   49.8424 H       1  ZINC001342153661    0.3800
     42 H42        -5.4140    4.8862   51.6223 H       1  ZINC001342153661    0.1300
     43 H43        -3.1598    5.9248   51.4733 H       1  ZINC001342153661    0.1400
     44 H44        -1.3025    4.6348   50.4990 H       1  ZINC001342153661    0.1600
     45 H45        -3.7801    1.3734   49.8276 H       1  ZINC001342153661    0.1500
     46 H46       -10.9857   -1.5567   53.7690 H       1  ZINC001342153661    0.0500
     47 H47       -10.4672   -0.2745   54.8893 H       1  ZINC001342153661    0.0700
     48 H48       -12.7550   -1.0814   55.4324 H       1  ZINC001342153661    0.0800
     49 H49       -12.7721    0.6279   54.9336 H       1  ZINC001342153661    0.0700
     50 H50       -13.4252   -1.7708   53.1601 H       1  ZINC001342153661    0.0600
     51 H51       -14.5961   -0.5989   53.8142 H       1  ZINC001342153661    0.0700
     52 H52       -14.0145   -1.1852   50.7670 H       1  ZINC001342153661    0.0800
     53 H53       -16.0460   -0.9811   52.0467 H       1  ZINC001342153661    0.0700
     54 H54       -15.8618    0.7966   52.2095 H       1  ZINC001342153661    0.0700
     55 H55       -16.5951   -0.8215   49.7076 H       1  ZINC001342153661    0.0600
     56 H56       -17.4120    0.6288   50.3701 H       1  ZINC001342153661    0.0600
     57 H57       -15.5268    0.7470   48.3432 H       1  ZINC001342153661    0.0600
     58 H58       -15.8110    2.0830   49.4945 H       1  ZINC001342153661    0.0600
     59 H59       -13.7146    1.7871   50.3554 H       1  ZINC001342153661    0.0600
     60 H60       -13.4305    0.4510   49.2041 H       1  ZINC001342153661    0.0600
     61 H61       -11.6514    0.7125   51.0004 H       1  ZINC001342153661    0.0900
     62 H62       -11.6683   -0.9875   51.5268 H       1  ZINC001342153661    0.0500
@<TRIPOS>BOND
     1     1     2    2
     2     1    32    1
     3     1    33    1
     4     2     3    1
     5     2     4    1
     6     3    34    1
     7     3    35    1
     8     3    36    1
     9     4     5    1
    10     4    37    1
    11     4    38    1
    12     5    19    1
    13     5     6    1
    14     6     7    1
    15     6    17    2
    16     7     8    1
    17     7    39    1
    18     7    40    1
    19     8     9    1
    20     8    10    1
    21     8    11    1
    22    10    41    1
    23    11    16   ar
    24    11    12   ar
    25    12    13   ar
    26    12    42    1
    27    13    14   ar
    28    13    43    1
    29    14    15   ar
    30    14    44    1
    31    15    16   ar
    32    16    45    1
    33    17    18    1
    34    18    19    2
    35    19    20    1
    36    20    31    1
    37    20    21    1
    38    21    22    1
    39    21    46    1
    40    21    47    1
    41    22    23    1
    42    22    48    1
    43    22    49    1
    44    23    24    1
    45    23    50    1
    46    23    51    1
    47    24    25    1
    48    24    26    1
    49    24    31    1
    50    26    30    1
    51    26    27    1
    52    26    52    1
    53    27    28    1
    54    27    53    1
    55    27    54    1
    56    28    29    1
    57    28    55    1
    58    28    56    1
    59    29    30    1
    60    29    57    1
    61    29    58    1
    62    30    59    1
    63    30    60    1
    64    31    61    1
    65    31    62    1
@<TRIPOS>SUBSTRUCTURE
     1 ZINC001342153661        1 TEMP              0 ****  ****    0 ROOT


##########                                Name:    ZINC000015179664
##########                DOCK_Rotatable_Bonds:                   8
##########                         Heavy_Atoms:                  25
##########                    Molecular_Weight:             361.422
##########                DOCK_Rotatable_Bonds:                   8
##########                       Formal_Charge:        -2.23517e-07
##########                     HBond_Acceptors:                   8
##########                        HBond_Donors:                   1
##########                         Heavy_Atoms:                  25
##########                          Grid_Score:          -30.810909
##########                     Grid_vdw_energy:          -28.545481
##########                      Grid_es_energy:           -2.265429
##########           Internal_energy_repulsive:           25.938320

@<TRIPOS>MOLECULE
ZINC000015179664
 44 45 1 0 0
SMALL
USER_CHARGES


@<TRIPOS>ATOM
      1 C1        -12.1388   -1.1356   56.0324 C.3     1  ZINC000015179664   -0.1600
      2 C2        -11.7416   -2.1214   57.1331 C.3     1  ZINC000015179664    0.1800
      3 H3        -11.1799   -2.9470   56.6961 H       1  ZINC000015179664    0.1200
      4 C4        -12.9826   -2.6557   57.8006 C.ar    1  ZINC000015179664   -0.1000
      5 C5        -13.5847   -3.8041   57.3222 C.ar    1  ZINC000015179664   -0.0700
      6 C6        -14.7232   -4.2942   57.9347 C.ar    1  ZINC000015179664   -0.1200
      7 C7        -15.2589   -3.6360   59.0257 C.ar    1  ZINC000015179664   -0.0500
      8 C8        -14.6560   -2.4879   59.5049 C.ar    1  ZINC000015179664   -0.0400
      9 N9        -15.2300   -1.7828   60.6729 N.pl3   1  ZINC000015179664    0.0300
     10 O10       -16.2333   -2.2141   61.2119 O.2     1  ZINC000015179664   -0.1600
     11 O11       -14.6987   -0.7712   61.0950 O.2     1  ZINC000015179664   -0.1500
     12 C12       -13.5154   -2.0002   58.8952 C.ar    1  ZINC000015179664   -0.0400
     13 N13       -10.9099   -1.4361   58.1255 N.am    1  ZINC000015179664   -0.6100
     14 C14       -10.8038    0.0250   58.1089 C.3     1  ZINC000015179664    0.0600
     15 C15       -10.2425   -2.1497   59.0537 C.2     1  ZINC000015179664    0.5200
     16 O16       -10.3315   -3.3592   59.0683 O.2     1  ZINC000015179664   -0.5200
     17 C17        -9.3855   -1.4449   60.0735 C.3     1  ZINC000015179664   -0.1500
     18 C18       -10.2807   -0.6864   61.0553 C.3     1  ZINC000015179664    0.1300
     19 N19        -9.4660   -0.1618   62.1540 N.am    1  ZINC000015179664   -0.7300
     20 C20       -10.0515    0.2087   63.3099 C.2     1  ZINC000015179664    0.5800
     21 O21       -11.2567    0.1089   63.4405 O.2     1  ZINC000015179664   -0.5300
     22 C22        -9.2325    0.7341   64.4144 C.2     1  ZINC000015179664   -0.1500
     23 C23        -9.7558    1.2001   65.5801 C.2     1  ZINC000015179664   -0.2200
     24 S24        -8.5212    1.7281   66.6299 S.3     1  ZINC000015179664    0.1900
     25 C25        -7.2623    1.3150   65.4790 C.2     1  ZINC000015179664   -0.2300
     26 C26        -7.7904    0.8021   64.3740 C.2     1  ZINC000015179664   -0.0900
     27 H27       -12.7576   -1.6455   55.2940 H       1  ZINC000015179664    0.0800
     28 H28       -12.7005   -0.3100   56.4693 H       1  ZINC000015179664    0.0600
     29 H29       -11.2412   -0.7492   55.5496 H       1  ZINC000015179664    0.0700
     30 H30       -13.1662   -4.3183   56.4698 H       1  ZINC000015179664    0.1500
     31 H31       -15.1942   -5.1911   57.5604 H       1  ZINC000015179664    0.1500
     32 H32       -16.1486   -4.0186   59.5036 H       1  ZINC000015179664    0.1600
     33 H33       -13.0444   -1.1034   59.2694 H       1  ZINC000015179664    0.1600
     34 H34       -11.6108    0.4547   58.7023 H       1  ZINC000015179664    0.0600
     35 H35        -9.8440    0.3243   58.5301 H       1  ZINC000015179664    0.0800
     36 H36       -10.8775    0.3830   57.0820 H       1  ZINC000015179664    0.0800
     37 H37        -8.7901   -2.1785   60.6170 H       1  ZINC000015179664    0.1000
     38 H38        -8.7233   -0.7421   59.5681 H       1  ZINC000015179664    0.1000
     39 H39       -10.7687    0.1398   60.5382 H       1  ZINC000015179664    0.0800
     40 H40       -11.0368   -1.3625   61.4544 H       1  ZINC000015179664    0.0800
     41 H41        -8.5049   -0.0812   62.0494 H       1  ZINC000015179664    0.4000
     42 H42       -10.8107    1.2314   65.8094 H       1  ZINC000015179664    0.1700
     43 H43        -6.2048    1.4549   65.6476 H       1  ZINC000015179664    0.1700
     44 H44        -7.2024    0.4762   63.5288 H       1  ZINC000015179664    0.1600
@<TRIPOS>BOND
     1     1     2    1
     2     1    27    1
     3     1    28    1
     4     1    29    1
     5     2     3    1
     6     2     4    1
     7     2    13    1
     8     4    12   ar
     9     4     5   ar
    10     5     6   ar
    11     5    30    1
    12     6     7   ar
    13     6    31    1
    14     7     8   ar
    15     7    32    1
    16     8     9    1
    17     8    12   ar
    18     9    10    2
    19     9    11    2
    20    12    33    1
    21    13    14    1
    22    13    15   am
    23    14    34    1
    24    14    35    1
    25    14    36    1
    26    15    16    2
    27    15    17    1
    28    17    18    1
    29    17    37    1
    30    17    38    1
    31    18    19    1
    32    18    39    1
    33    18    40    1
    34    19    20   am
    35    19    41    1
    36    20    21    2
    37    20    22    1
    38    22    26    1
    39    22    23    2
    40    23    24    1
    41    23    42    1
    42    24    25    1
    43    25    26    2
    44    25    43    1
    45    26    44    1
@<TRIPOS>SUBSTRUCTURE
     1 ZINC000015179664        1 TEMP              0 ****  ****    0 ROOT


##########                                Name:    ZINC000439870054
##########                DOCK_Rotatable_Bonds:                   5
##########                         Heavy_Atoms:                  27
##########                    Molecular_Weight:             421.974
##########                DOCK_Rotatable_Bonds:                   5
##########                       Formal_Charge:           0.0200003
##########                     HBond_Acceptors:                   9
##########                        HBond_Donors:                   0
##########                         Heavy_Atoms:                  27
##########                          Grid_Score:          -30.769619
##########                     Grid_vdw_energy:          -28.902216
##########                      Grid_es_energy:           -1.867404
##########           Internal_energy_repulsive:           65.014984

@<TRIPOS>MOLECULE
ZINC000439870054
 47 50 1 0 0
SMALL
USER_CHARGES


@<TRIPOS>ATOM
      1 C1        -15.6077   -1.7895   60.2438 C.3     1  ZINC000439870054   -0.1400
      2 C2        -14.7898   -0.7132   60.9603 C.3     1  ZINC000439870054    0.0000
      3 C3        -15.2604   -0.5968   62.4116 C.3     1  ZINC000439870054   -0.1400
      4 C4        -13.3309   -1.0903   60.9341 C.2     1  ZINC000439870054    0.1900
      5 N5        -12.8403   -2.3016   60.9919 N.2     1  ZINC000439870054   -0.2900
      6 N6        -11.5527   -2.2525   60.9472 N.2     1  ZINC000439870054   -0.2700
      7 C7        -11.1708   -1.0157   60.8619 C.2     1  ZINC000439870054    0.1600
      8 C8         -9.7670   -0.4641   60.7963 C.3     1  ZINC000439870054    0.2400
      9 H9         -9.2779   -0.5754   61.7640 H       1  ZINC000439870054    0.1100
     10 C10        -8.9668   -1.1998   59.7195 C.3     1  ZINC000439870054   -0.1300
     11 N11        -9.8821    0.9657   60.4517 N.am    1  ZINC000439870054   -0.6300
     12 C12        -9.0608    1.5279   59.5430 C.2     1  ZINC000439870054    0.5300
     13 O13        -8.2120    0.8566   58.9955 O.2     1  ZINC000439870054   -0.4900
     14 C14        -9.1972    2.9906   59.2072 C.3     1  ZINC000439870054   -0.0700
     15 C15        -8.4382    3.2879   57.9396 C.2     1  ZINC000439870054    0.0900
     16 C16        -7.5762    4.3050   57.8511 C.2     1  ZINC000439870054   -0.2400
     17 S17        -6.9013    4.3177   56.2231 S.3     1  ZINC000439870054    0.1300
     18 C18        -7.8772    2.9096   55.8122 C.2     1  ZINC000439870054    0.1400
     19 C19        -7.8931    2.2334   54.5060 C.2     1  ZINC000439870054   -0.1300
     20 C20        -8.6350    1.1471   54.1989 C.2     1  ZINC000439870054   -0.1000
     21 C21        -8.4816    0.6917   52.9073 C.2     1  ZINC000439870054   -0.1200
     22 C22        -7.6235    1.3934   52.1568 C.2     1  ZINC000439870054   -0.1500
     23 Cl23       -7.2346    1.0508   50.5000 Cl      1  ZINC000439870054    0.0000
     24 S24        -6.9548    2.7187   53.0996 S.3     1  ZINC000439870054    0.2500
     25 N25        -8.5794    2.5597   56.8551 N.2     1  ZINC000439870054   -0.4400
     26 C26       -10.9190    1.7601   61.1278 C.3     1  ZINC000439870054    0.0900
     27 C27       -12.3009    1.2159   60.7472 C.3     1  ZINC000439870054    0.0900
     28 N28       -12.2866   -0.2433   60.8407 N.pl3   1  ZINC000439870054   -0.4700
     29 H29       -16.6629   -1.5168   60.2629 H       1  ZINC000439870054    0.0700
     30 H30       -15.2725   -1.8725   59.2099 H       1  ZINC000439870054    0.0500
     31 H31       -15.4705   -2.7460   60.7482 H       1  ZINC000439870054    0.0700
     32 H32       -14.9270    0.2433   60.4561 H       1  ZINC000439870054    0.0800
     33 H33       -14.6776    0.1700   62.9221 H       1  ZINC000439870054    0.0500
     34 H34       -16.3155   -0.3240   62.4306 H       1  ZINC000439870054    0.0700
     35 H35       -15.1232   -1.5533   62.9159 H       1  ZINC000439870054    0.0700
     36 H36        -9.3642   -0.9486   58.7362 H       1  ZINC000439870054    0.0600
     37 H37        -7.9203   -0.8998   59.7759 H       1  ZINC000439870054    0.0900
     38 H38        -9.0455   -2.2751   59.8794 H       1  ZINC000439870054    0.0700
     39 H39       -10.2502    3.2344   59.0658 H       1  ZINC000439870054    0.1100
     40 H40        -8.7918    3.5899   60.0224 H       1  ZINC000439870054    0.1200
     41 H41        -7.3349    5.0003   58.6415 H       1  ZINC000439870054    0.1800
     42 H42        -9.2957    0.6728   54.9094 H       1  ZINC000439870054    0.1500
     43 H43        -9.0141   -0.1681   52.5285 H       1  ZINC000439870054    0.1600
     44 H44       -10.7848    1.6904   62.2073 H       1  ZINC000439870054    0.0900
     45 H45       -10.8397    2.8019   60.8170 H       1  ZINC000439870054    0.1200
     46 H46       -13.0511    1.6195   61.4273 H       1  ZINC000439870054    0.1100
     47 H47       -12.5392    1.5096   59.7249 H       1  ZINC000439870054    0.0900
@<TRIPOS>BOND
     1     1     2    1
     2     1    29    1
     3     1    30    1
     4     1    31    1
     5     2     3    1
     6     2     4    1
     7     2    32    1
     8     3    33    1
     9     3    34    1
    10     3    35    1
    11     4    28    1
    12     4     5    2
    13     5     6    1
    14     6     7    2
    15     7    28    1
    16     7     8    1
    17     8     9    1
    18     8    10    1
    19     8    11    1
    20    10    36    1
    21    10    37    1
    22    10    38    1
    23    11    12   am
    24    11    26    1
    25    12    13    2
    26    12    14    1
    27    14    15    1
    28    14    39    1
    29    14    40    1
    30    15    25    1
    31    15    16    2
    32    16    17    1
    33    16    41    1
    34    17    18    1
    35    18    19    1
    36    18    25    2
    37    19    24    1
    38    19    20    2
    39    20    21    1
    40    20    42    1
    41    21    22    2
    42    21    43    1
    43    22    23    1
    44    22    24    1
    45    26    27    1
    46    26    44    1
    47    26    45    1
    48    27    28    1
    49    27    46    1
    50    27    47    1
@<TRIPOS>SUBSTRUCTURE
     1 ZINC000439870054        1 TEMP              0 ****  ****    0 ROOT


##########                                Name:    ZINC000807524472
##########                DOCK_Rotatable_Bonds:                   9
##########                         Heavy_Atoms:                  28
##########                    Molecular_Weight:             410.534
##########                DOCK_Rotatable_Bonds:                   9
##########                       Formal_Charge:           0.0200006
##########                     HBond_Acceptors:                   8
##########                        HBond_Donors:                   0
##########                         Heavy_Atoms:                  28
##########                          Grid_Score:          -30.709583
##########                     Grid_vdw_energy:          -30.802073
##########                      Grid_es_energy:            0.092489
##########           Internal_energy_repulsive:           18.509424

@<TRIPOS>MOLECULE
ZINC000807524472
 58 60 1 0 0
SMALL
USER_CHARGES


@<TRIPOS>ATOM
      1 C1         -7.8758    4.8425   50.3793 C.3     1  ZINC000807524472   -0.1500
      2 C2         -7.8161    3.4088   49.8480 C.3     1  ZINC000807524472    0.0600
      3 O3         -6.4525    2.9922   49.7540 O.3     1  ZINC000807524472   -0.3800
      4 C4         -5.8536    2.6751   51.0122 C.3     1  ZINC000807524472    0.0600
      5 C5         -6.3081    1.2836   51.4572 C.3     1  ZINC000807524472    0.0700
      6 O6         -7.5738    1.3898   52.1609 O.3     1  ZINC000807524472   -0.3500
      7 C7         -8.0715    0.2590   52.6991 C.2     1  ZINC000807524472    0.5000
      8 O8         -7.5201   -0.8046   52.4954 O.2     1  ZINC000807524472   -0.4600
      9 C9         -9.2836    0.3122   53.5342 C.ar    1  ZINC000807524472   -0.1200
     10 C10       -10.3213   -0.6007   53.3266 C.ar    1  ZINC000807524472    0.0400
     11 C11       -11.4521   -0.5458   54.1116 C.ar    1  ZINC000807524472   -0.7000
     12 S12       -12.7585   -1.6983   53.8479 S.o2    1  ZINC000807524472    2.6900
     13 O13       -13.7766   -0.9974   53.1469 O.2     1  ZINC000807524472   -0.9500
     14 O14       -12.1527   -2.8859   53.3559 O.2     1  ZINC000807524472   -0.9500
     15 N15       -13.3873   -2.0748   55.3328 N.am    1  ZINC000807524472   -0.9900
     16 C16       -14.8007   -1.8118   55.6357 C.3     1  ZINC000807524472    0.1200
     17 C17       -15.4462   -3.1063   56.1401 C.3     1  ZINC000807524472   -0.1400
     18 C18       -14.6397   -3.6464   57.3233 C.3     1  ZINC000807524472   -0.1200
     19 C19       -13.2133   -3.9632   56.8684 C.3     1  ZINC000807524472   -0.1400
     20 C20       -12.5439   -2.6839   56.3704 C.3     1  ZINC000807524472    0.1200
     21 C21       -11.5675    0.4108   55.1077 C.ar    1  ZINC000807524472    0.0200
     22 C22       -10.5522    1.3195   55.3253 C.ar    1  ZINC000807524472   -0.1800
     23 C23        -9.4015    1.2769   54.5482 C.ar    1  ZINC000807524472    0.2000
     24 N24        -8.3783    2.1897   54.7653 N.3     1  ZINC000807524472   -0.4800
     25 C25        -8.8750    3.5844   54.6455 C.3     1  ZINC000807524472    0.0400
     26 C26        -7.8071    4.4079   55.4084 C.3     1  ZINC000807524472   -0.1200
     27 C27        -7.4389    3.4842   56.5920 C.3     1  ZINC000807524472   -0.1300
     28 C28        -7.8428    2.0690   56.1387 C.3     1  ZINC000807524472    0.0400
     29 H29        -7.3396    5.5045   49.6993 H       1  ZINC000807524472    0.0600
     30 H30        -8.9160    5.1603   50.4510 H       1  ZINC000807524472    0.0700
     31 H31        -7.4145    4.8838   51.3659 H       1  ZINC000807524472    0.0700
     32 H32        -8.3523    2.7468   50.5279 H       1  ZINC000807524472    0.0500
     33 H33        -8.2775    3.3675   48.8613 H       1  ZINC000807524472    0.0500
     34 H34        -4.7684    2.6879   50.9115 H       1  ZINC000807524472    0.0600
     35 H35        -6.1583    3.4118   51.7556 H       1  ZINC000807524472    0.0700
     36 H36        -6.4312    0.6447   50.5827 H       1  ZINC000807524472    0.0900
     37 H37        -5.5588    0.8514   52.1205 H       1  ZINC000807524472    0.0800
     38 H38       -10.2369   -1.3480   52.5515 H       1  ZINC000807524472    0.1600
     39 H39       -14.8725   -1.0436   56.4057 H       1  ZINC000807524472    0.0800
     40 H40       -15.3116   -1.4763   54.7332 H       1  ZINC000807524472    0.0900
     41 H41       -16.4684   -2.9029   56.4591 H       1  ZINC000807524472    0.0800
     42 H42       -15.4548   -3.8448   55.3384 H       1  ZINC000807524472    0.0700
     43 H43       -14.6105   -2.8975   58.1149 H       1  ZINC000807524472    0.0700
     44 H44       -15.1109   -4.5543   57.6998 H       1  ZINC000807524472    0.0700
     45 H45       -12.6461   -4.3696   57.7059 H       1  ZINC000807524472    0.0800
     46 H46       -13.2429   -4.6936   56.0599 H       1  ZINC000807524472    0.0700
     47 H47       -11.5650   -2.9219   55.9543 H       1  ZINC000807524472    0.0900
     48 H48       -12.4311   -1.9843   57.1984 H       1  ZINC000807524472    0.0800
     49 H49       -12.4582    0.4453   55.7176 H       1  ZINC000807524472    0.1500
     50 H50       -10.6503    2.0620   56.1034 H       1  ZINC000807524472    0.1400
     51 H51        -8.9203    3.8882   53.5996 H       1  ZINC000807524472    0.0900
     52 H52        -9.8511    3.6872   55.1197 H       1  ZINC000807524472    0.0500
     53 H53        -6.9376    4.5910   54.7770 H       1  ZINC000807524472    0.0800
     54 H54        -8.2283    5.3466   55.7682 H       1  ZINC000807524472    0.0800
     55 H55        -6.3672    3.5275   56.7867 H       1  ZINC000807524472    0.0800
     56 H56        -7.9978    3.7700   57.4831 H       1  ZINC000807524472    0.0700
     57 H57        -8.6103    1.6713   56.8028 H       1  ZINC000807524472    0.0500
     58 H58        -6.9707    1.4152   56.1411 H       1  ZINC000807524472    0.0900
@<TRIPOS>BOND
     1     1     2    1
     2     1    29    1
     3     1    30    1
     4     1    31    1
     5     2     3    1
     6     2    32    1
     7     2    33    1
     8     3     4    1
     9     4     5    1
    10     4    34    1
    11     4    35    1
    12     5     6    1
    13     5    36    1
    14     5    37    1
    15     6     7    1
    16     7     8    2
    17     7     9    1
    18     9    23   ar
    19     9    10   ar
    20    10    11   ar
    21    10    38    1
    22    11    12    1
    23    11    21   ar
    24    12    13    2
    25    12    14    2
    26    12    15   am
    27    15    20    1
    28    15    16    1
    29    16    17    1
    30    16    39    1
    31    16    40    1
    32    17    18    1
    33    17    41    1
    34    17    42    1
    35    18    19    1
    36    18    43    1
    37    18    44    1
    38    19    20    1
    39    19    45    1
    40    19    46    1
    41    20    47    1
    42    20    48    1
    43    21    22   ar
    44    21    49    1
    45    22    23   ar
    46    22    50    1
    47    23    24    1
    48    24    28    1
    49    24    25    1
    50    25    26    1
    51    25    51    1
    52    25    52    1
    53    26    27    1
    54    26    53    1
    55    26    54    1
    56    27    28    1
    57    27    55    1
    58    27    56    1
    59    28    57    1
    60    28    58    1
@<TRIPOS>SUBSTRUCTURE
     1 ZINC000807524472        1 TEMP              0 ****  ****    0 ROOT


##########                                Name:    ZINC000523878927
##########                DOCK_Rotatable_Bonds:                   8
##########                         Heavy_Atoms:                  27
##########                    Molecular_Weight:             376.474
##########                DOCK_Rotatable_Bonds:                   8
##########                       Formal_Charge:          0.00999957
##########                     HBond_Acceptors:                   7
##########                        HBond_Donors:                   3
##########                         Heavy_Atoms:                  27
##########                          Grid_Score:          -30.691961
##########                     Grid_vdw_energy:          -28.682306
##########                      Grid_es_energy:           -2.009654
##########           Internal_energy_repulsive:            7.078744

@<TRIPOS>MOLECULE
ZINC000523878927
 56 58 1 0 0
SMALL
USER_CHARGES


@<TRIPOS>ATOM
      1 C1        -11.0500   -1.0385   51.6548 C.3     1  ZINC000523878927   -0.1500
      2 C2        -10.9566   -1.1174   53.1799 C.3     1  ZINC000523878927   -0.0900
      3 H3        -10.5289   -2.0775   53.4686 H       1  ZINC000523878927    0.0700
      4 C4        -12.3556   -0.9801   53.7842 C.3     1  ZINC000523878927   -0.1200
      5 C5        -12.9560    0.3676   53.3791 C.3     1  ZINC000523878927   -0.1200
      6 C6        -12.0643    1.4990   53.8947 C.3     1  ZINC000523878927   -0.1100
      7 C7        -10.6654    1.3615   53.2904 C.3     1  ZINC000523878927   -0.1000
      8 H8        -10.7319    1.4178   52.2039 H       1  ZINC000523878927    0.0800
      9 C9         -9.7738    2.4928   53.8061 C.3     1  ZINC000523878927    0.1400
     10 N10        -8.4405    2.3739   53.2106 N.am    1  ZINC000523878927   -0.7400
     11 C11        -8.2019    2.8818   51.9853 C.2     1  ZINC000523878927    0.7200
     12 O12        -9.0935    3.4377   51.3735 O.2     1  ZINC000523878927   -0.5800
     13 N13        -6.9750    2.7737   51.4382 N.am    1  ZINC000523878927   -0.6400
     14 C14        -6.5774    3.2816   50.1126 C.3     1  ZINC000523878927    0.1000
     15 C15        -5.0441    3.4806   50.2076 C.3     1  ZINC000523878927   -0.1400
     16 C16        -4.6269    2.2712   51.0855 C.3     1  ZINC000523878927    0.1500
     17 H17        -4.5197    1.3725   50.4781 H       1  ZINC000523878927    0.1100
     18 N18        -3.3843    2.5583   51.8065 N.am    1  ZINC000523878927   -0.7300
     19 C19        -2.1944    2.3270   51.2173 C.2     1  ZINC000523878927    0.7100
     20 O20        -2.1522    1.8816   50.0867 O.2     1  ZINC000523878927   -0.5700
     21 N21        -1.0513    2.5897   51.8812 N.am    1  ZINC000523878927   -0.6800
     22 C22         0.1852    2.3493   51.2688 C.ar    1  ZINC000523878927    0.1500
     23 C23         0.9420    3.4105   50.7904 C.ar    1  ZINC000523878927   -0.1200
     24 C24         2.1612    3.1715   50.1873 C.ar    1  ZINC000523878927   -0.1300
     25 C25         2.6288    1.8744   50.0591 C.ar    1  ZINC000523878927    0.0800
     26 F26         3.8215    1.6426   49.4684 F       1  ZINC000523878927   -0.1400
     27 C27         1.8758    0.8148   50.5359 C.ar    1  ZINC000523878927   -0.1300
     28 C28         0.6584    1.0500   51.1444 C.ar    1  ZINC000523878927   -0.0900
     29 C29        -5.8096    2.1351   52.0673 C.3     1  ZINC000523878927    0.1200
     30 C30       -10.0649    0.0139   53.6955 C.3     1  ZINC000523878927   -0.1100
     31 H31       -10.0534   -1.1364   51.2243 H       1  ZINC000523878927    0.0500
     32 H32       -11.6852   -1.8444   51.2875 H       1  ZINC000523878927    0.0500
     33 H33       -11.4777   -0.0784   51.3662 H       1  ZINC000523878927    0.0600
     34 H34       -12.9908   -1.7860   53.4169 H       1  ZINC000523878927    0.0600
     35 H35       -12.2890   -1.0363   54.8708 H       1  ZINC000523878927    0.0600
     36 H36       -13.0224    0.4239   52.2926 H       1  ZINC000523878927    0.0700
     37 H37       -13.9526    0.4655   53.8096 H       1  ZINC000523878927    0.0600
     38 H38       -12.4921    2.4591   53.6060 H       1  ZINC000523878927    0.0600
     39 H39       -11.9978    1.4427   54.9813 H       1  ZINC000523878927    0.0600
     40 H40       -10.2099    3.4532   53.5316 H       1  ZINC000523878927    0.0700
     41 H41        -9.6941    2.4267   54.8913 H       1  ZINC000523878927    0.0700
     42 H42        -7.7295    1.9293   53.6983 H       1  ZINC000523878927    0.3900
     43 H43        -6.8181    2.5523   49.3391 H       1  ZINC000523878927    0.0800
     44 H44        -7.0712    4.2312   49.9065 H       1  ZINC000523878927    0.0800
     45 H45        -4.5813    3.4262   49.2223 H       1  ZINC000523878927    0.1000
     46 H46        -4.8021    4.4225   50.6997 H       1  ZINC000523878927    0.0800
     47 H47        -3.4179    2.9148   52.7079 H       1  ZINC000523878927    0.4000
     48 H48        -1.0850    2.9451   52.7830 H       1  ZINC000523878927    0.4100
     49 H49         0.5772    4.4223   50.8896 H       1  ZINC000523878927    0.1400
     50 H50         2.7502    3.9967   49.8150 H       1  ZINC000523878927    0.1400
     51 H51         2.2423   -0.1962   50.4351 H       1  ZINC000523878927    0.1400
     52 H52         0.0716    0.2233   51.5166 H       1  ZINC000523878927    0.1500
     53 H53        -5.5703    2.6327   53.0071 H       1  ZINC000523878927    0.0700
     54 H54        -6.0227    1.0814   52.2471 H       1  ZINC000523878927    0.0800
     55 H55        -9.9985   -0.0423   54.7821 H       1  ZINC000523878927    0.0700
     56 H56        -9.0683   -0.0840   53.2651 H       1  ZINC000523878927    0.0700
@<TRIPOS>BOND
     1     1     2    1
     2     1    31    1
     3     1    32    1
     4     1    33    1
     5     2     3    1
     6     2    30    1
     7     2     4    1
     8     4     5    1
     9     4    34    1
    10     4    35    1
    11     5     6    1
    12     5    36    1
    13     5    37    1
    14     6     7    1
    15     6    38    1
    16     6    39    1
    17     7     8    1
    18     7     9    1
    19     7    30    1
    20     9    10    1
    21     9    40    1
    22     9    41    1
    23    10    11   am
    24    10    42    1
    25    11    12    2
    26    11    13   am
    27    13    29    1
    28    13    14    1
    29    14    15    1
    30    14    43    1
    31    14    44    1
    32    15    16    1
    33    15    45    1
    34    15    46    1
    35    16    17    1
    36    16    18    1
    37    16    29    1
    38    18    19   am
    39    18    47    1
    40    19    20    2
    41    19    21   am
    42    21    22    1
    43    21    48    1
    44    22    28   ar
    45    22    23   ar
    46    23    24   ar
    47    23    49    1
    48    24    25   ar
    49    24    50    1
    50    25    26    1
    51    25    27   ar
    52    27    28   ar
    53    27    51    1
    54    28    52    1
    55    29    53    1
    56    29    54    1
    57    30    55    1
    58    30    56    1
@<TRIPOS>SUBSTRUCTURE
     1 ZINC000523878927        1 TEMP              0 ****  ****    0 ROOT


##########                                Name:    ZINC000547864253
##########                DOCK_Rotatable_Bonds:                   6
##########                         Heavy_Atoms:                  30
##########                    Molecular_Weight:             422.548
##########                DOCK_Rotatable_Bonds:                   6
##########                       Formal_Charge:           0.0300002
##########                     HBond_Acceptors:                   6
##########                        HBond_Donors:                   2
##########                         Heavy_Atoms:                  30
##########                          Grid_Score:          -30.658995
##########                     Grid_vdw_energy:          -28.955151
##########                      Grid_es_energy:           -1.703845
##########           Internal_energy_repulsive:           10.735202

@<TRIPOS>MOLECULE
ZINC000547864253
 56 60 1 0 0
SMALL
USER_CHARGES


@<TRIPOS>ATOM
      1 O1        -11.0215   -3.2305   60.1778 O.2     1  ZINC000547864253   -0.5300
      2 C2        -10.8845   -2.6063   59.1471 C.2     1  ZINC000547864253    0.5400
      3 N3        -10.0974   -1.5124   59.1213 N.am    1  ZINC000547864253   -0.7200
      4 C4         -9.4123   -1.0742   60.3398 C.3     1  ZINC000547864253    0.1300
      5 C5        -10.3119   -0.1060   61.1106 C.3     1  ZINC000547864253    0.0200
      6 H6        -11.3091   -0.5354   61.2073 H       1  ZINC000547864253    0.0900
      7 C7         -9.7334    0.1345   62.4811 C.2     1  ZINC000547864253   -0.1600
      8 C8         -8.4736   -0.1162   62.8712 C.2     1  ZINC000547864253    0.0600
      9 N9         -8.3146    0.2297   64.1856 N.pl3   1  ZINC000547864253   -0.5900
     10 C10        -9.4984    0.7239   64.6861 C.ar    1  ZINC000547864253    0.1000
     11 C11        -9.8836    1.2075   65.9319 C.ar    1  ZINC000547864253   -0.1300
     12 C12       -11.1766    1.6420   66.1274 C.ar    1  ZINC000547864253   -0.1000
     13 C13       -12.1006    1.6024   65.0927 C.ar    1  ZINC000547864253   -0.1400
     14 C14       -11.7435    1.1312   63.8606 C.ar    1  ZINC000547864253   -0.0700
     15 C15       -10.4373    0.6918   63.6387 C.ar    1  ZINC000547864253   -0.1000
     16 C16       -10.3981    1.2010   60.3653 C.ar    1  ZINC000547864253   -0.0700
     17 C17        -9.3458    2.0959   60.4155 C.ar    1  ZINC000547864253   -0.1100
     18 C18        -9.4248    3.2949   59.7320 C.ar    1  ZINC000547864253   -0.1200
     19 C19       -10.5561    3.5987   58.9979 C.ar    1  ZINC000547864253   -0.1200
     20 C20       -11.6081    2.7033   58.9469 C.ar    1  ZINC000547864253   -0.1100
     21 C21       -11.5272    1.5026   59.6270 C.ar    1  ZINC000547864253   -0.1200
     22 C22       -11.5893   -3.0571   57.8936 C.3     1  ZINC000547864253   -0.1700
     23 H23       -11.1332   -3.9007   57.3755 H       1  ZINC000547864253    0.1400
     24 C24       -12.2640   -1.9836   57.0378 C.3     1  ZINC000547864253   -0.1300
     25 C25       -13.1164   -2.9511   57.8642 C.3     1  ZINC000547864253   -0.1400
     26 C26       -13.8815   -4.0374   57.1072 C.3     1  ZINC000547864253   -0.0700
     27 C27       -15.1744   -3.4535   56.5338 C.3     1  ZINC000547864253   -0.6000
     28 S28       -16.2110   -2.8467   57.8952 S.o2    1  ZINC000547864253    2.4200
     29 O29       -17.3064   -2.1272   57.3460 O.2     1  ZINC000547864253   -0.9400
     30 O30       -16.4642   -3.9231   58.7876 O.2     1  ZINC000547864253   -0.9300
     31 C31       -15.0924   -1.6693   58.7070 C.3     1  ZINC000547864253   -0.6000
     32 C32       -13.8059   -2.3932   59.1100 C.3     1  ZINC000547864253   -0.0700
     33 H33        -9.9846   -1.0154   58.2960 H       1  ZINC000547864253    0.4000
     34 H34        -9.1915   -1.9400   60.9639 H       1  ZINC000547864253    0.0800
     35 H35        -8.4824   -0.5719   60.0731 H       1  ZINC000547864253    0.0700
     36 H36        -7.7002   -0.5298   62.2411 H       1  ZINC000547864253    0.1700
     37 H37        -7.4907    0.1401   64.6896 H       1  ZINC000547864253    0.4200
     38 H38        -9.1719    1.2419   66.7436 H       1  ZINC000547864253    0.1200
     39 H39       -11.4739    2.0168   67.0956 H       1  ZINC000547864253    0.1300
     40 H40       -13.1102    1.9465   65.2627 H       1  ZINC000547864253    0.1200
     41 H41       -12.4680    1.1034   63.0602 H       1  ZINC000547864253    0.1200
     42 H42        -8.4620    1.8586   60.9891 H       1  ZINC000547864253    0.1200
     43 H43        -8.6029    3.9944   59.7718 H       1  ZINC000547864253    0.1200
     44 H44       -10.6181    4.5356   58.4644 H       1  ZINC000547864253    0.1200
     45 H45       -12.4920    2.9408   58.3736 H       1  ZINC000547864253    0.1200
     46 H46       -12.3491    0.8030   59.5871 H       1  ZINC000547864253    0.1200
     47 H47       -12.1983   -0.9512   57.3812 H       1  ZINC000547864253    0.1100
     48 H48       -12.2523   -2.1211   55.9566 H       1  ZINC000547864253    0.1100
     49 H49       -13.2629   -4.4169   56.2939 H       1  ZINC000547864253    0.0900
     50 H50       -14.1230   -4.8529   57.7890 H       1  ZINC000547864253    0.0900
     51 H51       -14.9351   -2.6286   55.8628 H       1  ZINC000547864253    0.1400
     52 H52       -15.7111   -4.2270   55.9843 H       1  ZINC000547864253    0.1400
     53 H53       -14.8539   -0.8592   58.0179 H       1  ZINC000547864253    0.1400
     54 H54       -15.5749   -1.2621   59.5957 H       1  ZINC000547864253    0.1400
     55 H55       -14.0476   -3.2117   59.7880 H       1  ZINC000547864253    0.0900
     56 H56       -13.1378   -1.6930   59.6115 H       1  ZINC000547864253    0.0900
@<TRIPOS>BOND
     1     1     2    2
     2     2     3   am
     3     2    22    1
     4     3     4    1
     5     3    33    1
     6     4     5    1
     7     4    34    1
     8     4    35    1
     9     5     6    1
    10     5     7    1
    11     5    16    1
    12     7    15    1
    13     7     8    2
    14     8     9    1
    15     8    36    1
    16     9    10    1
    17     9    37    1
    18    10    15   ar
    19    10    11   ar
    20    11    12   ar
    21    11    38    1
    22    12    13   ar
    23    12    39    1
    24    13    14   ar
    25    13    40    1
    26    14    15   ar
    27    14    41    1
    28    16    21   ar
    29    16    17   ar
    30    17    18   ar
    31    17    42    1
    32    18    19   ar
    33    18    43    1
    34    19    20   ar
    35    19    44    1
    36    20    21   ar
    37    20    45    1
    38    21    46    1
    39    22    23    1
    40    22    25    1
    41    22    24    1
    42    24    25    1
    43    24    47    1
    44    24    48    1
    45    25    32    1
    46    25    26    1
    47    26    27    1
    48    26    49    1
    49    26    50    1
    50    27    28    1
    51    27    51    1
    52    27    52    1
    53    28    29    2
    54    28    30    2
    55    28    31    1
    56    31    32    1
    57    31    53    1
    58    31    54    1
    59    32    55    1
    60    32    56    1
@<TRIPOS>SUBSTRUCTURE
     1 ZINC000547864253        1 TEMP              0 ****  ****    0 ROOT


##########                                Name:    ZINC001707162141
##########                DOCK_Rotatable_Bonds:                   9
##########                         Heavy_Atoms:                  25
##########                    Molecular_Weight:               344.5
##########                DOCK_Rotatable_Bonds:                   9
##########                       Formal_Charge:          -0.0299999
##########                     HBond_Acceptors:                   5
##########                        HBond_Donors:                   1
##########                         Heavy_Atoms:                  25
##########                          Grid_Score:          -30.655434
##########                     Grid_vdw_energy:          -29.939972
##########                      Grid_es_energy:           -0.715461
##########           Internal_energy_repulsive:           85.790932

@<TRIPOS>MOLECULE
ZINC001707162141
 57 59 1 0 0
SMALL
USER_CHARGES


@<TRIPOS>ATOM
      1 C1         -5.0249    1.9096   50.7986 C.3     1  ZINC001707162141   -0.1800
      2 C2         -6.5379    1.7372   50.9469 C.3     1  ZINC001707162141    0.1700
      3 H3         -6.8783    0.9362   50.2905 H       1  ZINC001707162141    0.1000
      4 N4         -6.8581    1.3981   52.3399 N.3     1  ZINC001707162141   -0.6400
      5 C5         -8.0248    0.5082   52.4102 C.3     1  ZINC001707162141    0.0700
      6 C6         -9.2648    1.3218   52.7860 C.3     1  ZINC001707162141    0.1500
      7 H7         -9.4983    2.0231   51.9849 H       1  ZINC001707162141    0.0700
      8 C8         -9.0007    2.0904   54.0845 C.3     1  ZINC001707162141   -0.1200
      9 C9        -10.2869    2.7905   54.5290 C.3     1  ZINC001707162141   -0.0900
     10 H10       -10.6221    3.4672   53.7429 H       1  ZINC001707162141    0.0700
     11 C11       -10.0180    3.5874   55.8072 C.3     1  ZINC001707162141   -0.1500
     12 C12       -11.3716    1.7451   54.7986 C.3     1  ZINC001707162141   -0.1300
     13 C13       -11.6627    0.9726   53.5082 C.3     1  ZINC001707162141    0.1100
     14 N14       -10.4030    0.4167   52.9954 N.am    1  ZINC001707162141   -0.6100
     15 C15       -10.2936   -0.8987   52.7229 C.2     1  ZINC001707162141    0.5100
     16 O16        -9.2483   -1.3454   52.3000 O.2     1  ZINC001707162141   -0.4800
     17 C17       -11.4699   -1.8144   52.9435 C.3     1  ZINC001707162141   -0.1400
     18 C18       -11.5360   -2.2132   54.4191 C.3     1  ZINC001707162141   -0.0900
     19 C19       -12.8492   -2.9503   54.6899 C.3     1  ZINC001707162141   -0.0900
     20 C20       -12.9334   -3.3138   56.1737 C.3     1  ZINC001707162141   -0.1500
     21 C21       -14.2301   -2.9747   56.9117 C.3     1  ZINC001707162141   -0.1800
     22 C22       -12.9612   -2.1637   57.1824 C.3     1  ZINC001707162141   -0.1800
     23 C23        -7.2292    3.0226   50.5711 C.ar    1  ZINC001707162141    0.3500
     24 N24        -8.2781    2.9775   49.7745 N.ar    1  ZINC001707162141   -0.5000
     25 C25        -8.9139    4.0851   49.4275 C.ar    1  ZINC001707162141    0.1500
     26 C26        -8.4556    5.3030   49.9044 C.ar    1  ZINC001707162141   -0.2400
     27 C27        -7.3462    5.3105   50.7352 C.ar    1  ZINC001707162141    0.1500
     28 N28        -6.7653    4.1621   51.0435 N.ar    1  ZINC001707162141   -0.5200
     29 H29        -4.5250    0.9800   51.0705 H       1  ZINC001707162141    0.0600
     30 H30        -4.7875    2.1613   49.7651 H       1  ZINC001707162141    0.0600
     31 H31        -4.6846    2.7106   51.4551 H       1  ZINC001707162141    0.0600
     32 H32        -6.0619    0.9878   52.8043 H       1  ZINC001707162141    0.3300
     33 H33        -8.1804    0.0358   51.4404 H       1  ZINC001707162141    0.1000
     34 H34        -7.8515   -0.2592   53.1646 H       1  ZINC001707162141    0.0200
     35 H35        -8.6783    1.3952   54.8596 H       1  ZINC001707162141    0.0700
     36 H36        -8.2217    2.8338   53.9152 H       1  ZINC001707162141    0.0700
     37 H37        -9.6833    2.9108   56.5935 H       1  ZINC001707162141    0.0500
     38 H38        -9.2455    4.3320   55.6153 H       1  ZINC001707162141    0.0600
     39 H39       -10.9338    4.0870   56.1231 H       1  ZINC001707162141    0.0600
     40 H40       -12.2802    2.2428   55.1376 H       1  ZINC001707162141    0.0700
     41 H41       -11.0270    1.0531   55.5671 H       1  ZINC001707162141    0.0700
     42 H42       -12.0927    1.6470   52.7677 H       1  ZINC001707162141    0.0600
     43 H43       -12.3614    0.1625   53.7170 H       1  ZINC001707162141    0.0800
     44 H44       -12.3890   -1.2988   52.6650 H       1  ZINC001707162141    0.0800
     45 H45       -11.3546   -2.7083   52.3304 H       1  ZINC001707162141    0.0800
     46 H46       -10.6967   -2.8669   54.6569 H       1  ZINC001707162141    0.0700
     47 H47       -11.4869   -1.3185   55.0399 H       1  ZINC001707162141    0.0700
     48 H48       -13.6882   -2.3069   54.4253 H       1  ZINC001707162141    0.0600
     49 H49       -12.8855   -3.8599   54.0903 H       1  ZINC001707162141    0.0600
     50 H50       -12.4121   -4.2258   56.4647 H       1  ZINC001707162141    0.1000
     51 H51       -15.0231   -2.4927   56.3400 H       1  ZINC001707162141    0.0900
     52 H52       -14.5621   -3.6638   57.6882 H       1  ZINC001707162141    0.0900
     53 H53       -12.4586   -2.3192   58.1369 H       1  ZINC001707162141    0.0900
     54 H54       -12.9196   -1.1481   56.7888 H       1  ZINC001707162141    0.0900
     55 H55        -9.7753    4.0410   48.7777 H       1  ZINC001707162141    0.1600
     56 H56        -8.9511    6.2242   49.6354 H       1  ZINC001707162141    0.1400
     57 H57        -6.9609    6.2409   51.1254 H       1  ZINC001707162141    0.1600
@<TRIPOS>BOND
     1     1     2    1
     2     1    29    1
     3     1    30    1
     4     1    31    1
     5     2     3    1
     6     2     4    1
     7     2    23    1
     8     4     5    1
     9     4    32    1
    10     5     6    1
    11     5    33    1
    12     5    34    1
    13     6     7    1
    14     6    14    1
    15     6     8    1
    16     8     9    1
    17     8    35    1
    18     8    36    1
    19     9    10    1
    20     9    11    1
    21     9    12    1
    22    11    37    1
    23    11    38    1
    24    11    39    1
    25    12    13    1
    26    12    40    1
    27    12    41    1
    28    13    14    1
    29    13    42    1
    30    13    43    1
    31    14    15   am
    32    15    16    2
    33    15    17    1
    34    17    18    1
    35    17    44    1
    36    17    45    1
    37    18    19    1
    38    18    46    1
    39    18    47    1
    40    19    20    1
    41    19    48    1
    42    19    49    1
    43    20    22    1
    44    20    21    1
    45    20    50    1
    46    21    22    1
    47    21    51    1
    48    21    52    1
    49    22    53    1
    50    22    54    1
    51    23    28   ar
    52    23    24   ar
    53    24    25   ar
    54    25    26   ar
    55    25    55    1
    56    26    27   ar
    57    26    56    1
    58    27    28   ar
    59    27    57    1
@<TRIPOS>SUBSTRUCTURE
     1 ZINC001707162141        1 TEMP              0 ****  ****    0 ROOT


##########                                Name:    ZINC000410354665
##########                DOCK_Rotatable_Bonds:                   7
##########                         Heavy_Atoms:                  29
##########                    Molecular_Weight:             417.889
##########                DOCK_Rotatable_Bonds:                   7
##########                       Formal_Charge:        -3.72529e-08
##########                     HBond_Acceptors:                   7
##########                        HBond_Donors:                   1
##########                         Heavy_Atoms:                  29
##########                          Grid_Score:          -30.635513
##########                     Grid_vdw_energy:          -30.294088
##########                      Grid_es_energy:           -0.341425
##########           Internal_energy_repulsive:           12.696922

@<TRIPOS>MOLECULE
ZINC000410354665
 53 56 1 0 0
SMALL
USER_CHARGES


@<TRIPOS>ATOM
      1 C1        -14.4108   -5.8253   55.9416 C.3     1  ZINC000410354665    0.0200
      2 O2        -13.7436   -4.6380   55.5091 O.3     1  ZINC000410354665   -0.3000
      3 C3        -13.4565   -3.7096   56.4606 C.ar    1  ZINC000410354665    0.0900
      4 C4        -14.2120   -3.6476   57.6150 C.ar    1  ZINC000410354665   -0.1100
      5 C5        -13.9139   -2.6926   58.5910 C.ar    1  ZINC000410354665   -0.1400
      6 C6        -14.7179   -2.6223   59.8269 C.2     1  ZINC000410354665    0.5700
      7 O7        -15.4097   -3.5662   60.1566 O.2     1  ZINC000410354665   -0.5300
      8 N8        -14.6851   -1.5118   60.5898 N.am    1  ZINC000410354665   -0.7200
      9 C9        -15.4817   -1.4427   61.8174 C.3     1  ZINC000410354665    0.1700
     10 C10       -14.8693   -0.4368   62.7577 C.ar    1  ZINC000410354665   -0.1000
     11 C11       -15.6811    0.3255   63.5766 C.ar    1  ZINC000410354665   -0.0900
     12 C12       -15.1227    1.2514   64.4393 C.ar    1  ZINC000410354665   -0.0300
     13 Cl13      -16.1453    2.2074   65.4660 Cl      1  ZINC000410354665   -0.0400
     14 C14       -13.7456    1.4162   64.4850 C.ar    1  ZINC000410354665    0.0700
     15 O15       -13.2105    2.3366   65.3334 O.3     1  ZINC000410354665   -0.2900
     16 C16       -11.8132    2.2120   65.6198 C.3     1  ZINC000410354665    0.0200
     17 C17       -11.0696    1.9855   64.2967 C.3     1  ZINC000410354665    0.0200
     18 O18       -11.5768    0.7885   63.6967 O.3     1  ZINC000410354665   -0.3000
     19 C19       -12.9301    0.6467   63.6642 C.ar    1  ZINC000410354665    0.0600
     20 C20       -13.4965   -0.2821   62.8040 C.ar    1  ZINC000410354665   -0.0900
     21 C21       -12.8534   -1.8052   58.3946 C.ar    1  ZINC000410354665   -0.0800
     22 C22       -12.1036   -1.8721   57.2400 C.ar    1  ZINC000410354665   -0.1900
     23 C23       -12.3957   -2.8242   56.2732 C.ar    1  ZINC000410354665    0.1400
     24 O24       -11.6541   -2.8861   55.1374 O.3     1  ZINC000410354665   -0.2900
     25 C25       -11.6768   -1.7398   54.2845 C.3     1  ZINC000410354665    0.0700
     26 C26       -11.1409   -2.1008   52.8768 C.3     1  ZINC000410354665   -0.1500
     27 C27       -11.7810   -1.0136   51.9782 C.3     1  ZINC000410354665   -0.1200
     28 C28       -13.1949   -0.8223   52.5648 C.3     1  ZINC000410354665   -0.1200
     29 C29       -13.1286   -1.2840   54.0312 C.3     1  ZINC000410354665   -0.1200
     30 H30       -13.7941   -6.3412   56.6774 H       1  ZINC000410354665    0.0600
     31 H31       -15.3680   -5.5610   56.3910 H       1  ZINC000410354665    0.0600
     32 H32       -14.5794   -6.4795   55.0861 H       1  ZINC000410354665    0.1000
     33 H33       -15.0315   -4.3353   57.7631 H       1  ZINC000410354665    0.1500
     34 H34       -14.1341   -0.7583   60.3262 H       1  ZINC000410354665    0.4000
     35 H35       -16.4998   -1.1391   61.5734 H       1  ZINC000410354665    0.0800
     36 H36       -15.4994   -2.4224   62.2948 H       1  ZINC000410354665    0.0900
     37 H37       -16.7530    0.1982   63.5424 H       1  ZINC000410354665    0.1500
     38 H38       -11.4522    3.1253   66.0928 H       1  ZINC000410354665    0.1300
     39 H39       -11.6485    1.3637   66.2840 H       1  ZINC000410354665    0.0800
     40 H40       -11.2392    2.8311   63.6302 H       1  ZINC000410354665    0.0800
     41 H41       -10.0023    1.8766   64.4889 H       1  ZINC000410354665    0.1300
     42 H42       -12.8644   -0.8827   62.1666 H       1  ZINC000410354665    0.1400
     43 H43       -12.6211   -1.0664   59.1473 H       1  ZINC000410354665    0.1300
     44 H44       -11.2840   -1.1851   57.0893 H       1  ZINC000410354665    0.1400
     45 H45       -11.0931   -0.9292   54.7208 H       1  ZINC000410354665    0.0800
     46 H46       -10.0533   -2.0341   52.8487 H       1  ZINC000410354665    0.0700
     47 H47       -11.4758   -3.0944   52.5791 H       1  ZINC000410354665    0.0800
     48 H48       -11.2135   -0.0851   52.0398 H       1  ZINC000410354665    0.0700
     49 H49       -11.8398   -1.3582   50.9458 H       1  ZINC000410354665    0.0700
     50 H50       -13.4800    0.2287   52.5167 H       1  ZINC000410354665    0.0700
     51 H51       -13.9130   -1.4300   52.0141 H       1  ZINC000410354665    0.0700
     52 H52       -13.8146   -2.1157   54.1921 H       1  ZINC000410354665    0.0800
     53 H53       -13.3817   -0.4571   54.6947 H       1  ZINC000410354665    0.0700
@<TRIPOS>BOND
     1     1     2    1
     2     1    30    1
     3     1    31    1
     4     1    32    1
     5     2     3    1
     6     3    23   ar
     7     3     4   ar
     8     4     5   ar
     9     4    33    1
    10     5     6    1
    11     5    21   ar
    12     6     7    2
    13     6     8   am
    14     8     9    1
    15     8    34    1
    16     9    10    1
    17     9    35    1
    18     9    36    1
    19    10    20   ar
    20    10    11   ar
    21    11    12   ar
    22    11    37    1
    23    12    13    1
    24    12    14   ar
    25    14    19   ar
    26    14    15    1
    27    15    16    1
    28    16    17    1
    29    16    38    1
    30    16    39    1
    31    17    18    1
    32    17    40    1
    33    17    41    1
    34    18    19    1
    35    19    20   ar
    36    20    42    1
    37    21    22   ar
    38    21    43    1
    39    22    23   ar
    40    22    44    1
    41    23    24    1
    42    24    25    1
    43    25    29    1
    44    25    26    1
    45    25    45    1
    46    26    27    1
    47    26    46    1
    48    26    47    1
    49    27    28    1
    50    27    48    1
    51    27    49    1
    52    28    29    1
    53    28    50    1
    54    28    51    1
    55    29    52    1
    56    29    53    1
@<TRIPOS>SUBSTRUCTURE
     1 ZINC000410354665        1 TEMP              0 ****  ****    0 ROOT


##########                                Name:    ZINC000279452407
##########                DOCK_Rotatable_Bonds:                   6
##########                         Heavy_Atoms:                  24
##########                    Molecular_Weight:              375.47
##########                DOCK_Rotatable_Bonds:                   6
##########                       Formal_Charge:          0.00999929
##########                     HBond_Acceptors:                  10
##########                        HBond_Donors:                   3
##########                         Heavy_Atoms:                  24
##########                          Grid_Score:          -30.593767
##########                     Grid_vdw_energy:          -29.957327
##########                      Grid_es_energy:           -0.636440
##########           Internal_energy_repulsive:           26.726217

@<TRIPOS>MOLECULE
ZINC000279452407
 45 47 1 0 0
SMALL
USER_CHARGES


@<TRIPOS>ATOM
      1 C1        -11.4426   -3.2458   55.3767 C.3     1  ZINC000279452407   -0.1600
      2 C2        -12.4650   -2.8638   56.4490 C.3     1  ZINC000279452407    0.0600
      3 H3        -11.9742   -2.3093   57.2488 H       1  ZINC000279452407    0.0700
      4 O4        -13.0823   -4.0493   56.9820 O.3     1  ZINC000279452407   -0.3700
      5 C5        -14.4514   -3.7095   57.2921 C.3     1  ZINC000279452407    0.0500
      6 C6        -14.8778   -2.8024   56.1084 C.3     1  ZINC000279452407   -0.1400
      7 C7        -13.5797   -2.0091   55.8280 C.3     1  ZINC000279452407    0.0700
      8 C8        -13.3677   -1.8728   54.3224 C.3     1  ZINC000279452407    0.1100
      9 N9        -12.2299   -0.9667   54.0921 N.am    1  ZINC000279452407   -0.6300
     10 C10       -11.2275   -1.3077   53.2581 C.2     1  ZINC000279452407    0.7200
     11 O11       -11.2535   -2.3781   52.6821 O.2     1  ZINC000279452407   -0.5800
     12 N12       -10.1965   -0.4620   53.0624 N.am    1  ZINC000279452407   -0.7500
     13 C13        -9.1071   -0.8327   52.1559 C.3     1  ZINC000279452407    0.2000
     14 C14        -8.2517    0.3765   51.8777 C.2     1  ZINC000279452407   -0.1700
     15 C15        -8.6864    1.6373   51.8557 C.2     1  ZINC000279452407   -0.1400
     16 C16        -7.7158    2.5842   51.5775 C.2     1  ZINC000279452407    0.0100
     17 C17        -6.4929    2.0923   51.3735 C.2     1  ZINC000279452407   -0.7900
     18 S18        -5.0615    3.0506   51.0024 S.o2    1  ZINC000279452407    2.7300
     19 N19        -3.7581    2.2514   51.6386 N.am    1  ZINC000279452407   -1.2500
     20 O20        -4.9068    3.0102   49.5904 O.2     1  ZINC000279452407   -0.9600
     21 O21        -5.1875    4.2608   51.7362 O.2     1  ZINC000279452407   -0.9500
     22 S22        -6.5260    0.3416   51.5398 S.3     1  ZINC000279452407    0.2500
     23 C23       -12.2218    0.3231   54.8008 C.3     1  ZINC000279452407    0.0700
     24 C24       -12.4599    0.0595   56.2920 C.3     1  ZINC000279452407    0.0400
     25 O25       -13.6424   -0.7305   56.4477 O.3     1  ZINC000279452407   -0.3600
     26 H26       -10.9156   -2.3522   55.0425 H       1  ZINC000279452407    0.0700
     27 H27       -10.7274   -3.9552   55.7929 H       1  ZINC000279452407    0.0600
     28 H28       -11.9568   -3.7021   54.5307 H       1  ZINC000279452407    0.0800
     29 H29       -15.0699   -4.6061   57.3305 H       1  ZINC000279452407    0.1000
     30 H30       -14.5072   -3.1630   58.2335 H       1  ZINC000279452407    0.0700
     31 H31       -15.1652   -3.4004   55.2434 H       1  ZINC000279452407    0.1000
     32 H32       -15.6858   -2.1326   56.4026 H       1  ZINC000279452407    0.1000
     33 H33       -13.1499   -2.8507   53.8930 H       1  ZINC000279452407    0.1200
     34 H34       -14.2647   -1.4587   53.8621 H       1  ZINC000279452407    0.0800
     35 H35       -10.1757    0.3920   53.5220 H       1  ZINC000279452407    0.4000
     36 H36        -8.4982   -1.6098   52.6180 H       1  ZINC000279452407    0.1000
     37 H37        -9.5238   -1.2060   51.2204 H       1  ZINC000279452407    0.0900
     38 H38        -9.7177    1.8995   52.0406 H       1  ZINC000279452407    0.1600
     39 H39        -7.9324    3.6412   51.5289 H       1  ZINC000279452407    0.1600
     40 H40        -3.7134    2.0785   52.5920 H       1  ZINC000279452407    0.4200
     41 H41        -3.0393    1.9564   51.0578 H       1  ZINC000279452407    0.4200
     42 H42       -11.2561    0.8099   54.6644 H       1  ZINC000279452407    0.0900
     43 H43       -13.0150    0.9606   54.4103 H       1  ZINC000279452407    0.0900
     44 H44       -11.6066   -0.4766   56.7076 H       1  ZINC000279452407    0.0600
     45 H45       -12.5843    1.0082   56.8140 H       1  ZINC000279452407    0.1100
@<TRIPOS>BOND
     1     1     2    1
     2     1    26    1
     3     1    27    1
     4     1    28    1
     5     2     3    1
     6     2     7    1
     7     2     4    1
     8     4     5    1
     9     5     6    1
    10     5    29    1
    11     5    30    1
    12     6     7    1
    13     6    31    1
    14     6    32    1
    15     7    25    1
    16     7     8    1
    17     8     9    1
    18     8    33    1
    19     8    34    1
    20     9    10   am
    21     9    23    1
    22    10    11    2
    23    10    12   am
    24    12    13    1
    25    12    35    1
    26    13    14    1
    27    13    36    1
    28    13    37    1
    29    14    22    1
    30    14    15    2
    31    15    16    1
    32    15    38    1
    33    16    17    2
    34    16    39    1
    35    17    18    1
    36    17    22    1
    37    18    19   am
    38    18    20    2
    39    18    21    2
    40    19    40    1
    41    19    41    1
    42    23    24    1
    43    23    42    1
    44    23    43    1
    45    24    25    1
    46    24    44    1
    47    24    45    1
@<TRIPOS>SUBSTRUCTURE
     1 ZINC000279452407        1 TEMP              0 ****  ****    0 ROOT


##########                                Name:    ZINC000672622940
##########                DOCK_Rotatable_Bonds:                   7
##########                         Heavy_Atoms:                  30
##########                    Molecular_Weight:             416.523
##########                DOCK_Rotatable_Bonds:                   7
##########                       Formal_Charge:          -0.0100002
##########                     HBond_Acceptors:                   9
##########                        HBond_Donors:                   1
##########                         Heavy_Atoms:                  30
##########                          Grid_Score:          -30.584841
##########                     Grid_vdw_energy:          -27.313974
##########                      Grid_es_energy:           -3.270866
##########           Internal_energy_repulsive:           20.342670

@<TRIPOS>MOLECULE
ZINC000672622940
 62 65 1 0 0
SMALL
USER_CHARGES


@<TRIPOS>ATOM
      1 C1         -8.0467    2.8685   50.5774 C.3     1  ZINC000672622940    0.0800
      2 N2         -7.6213    2.6145   51.9560 N.am    1  ZINC000672622940   -0.6200
      3 C3         -6.9905    1.3390   52.3048 C.3     1  ZINC000672622940    0.0700
      4 C4         -7.8102    3.5542   52.9035 C.2     1  ZINC000672622940    0.5200
      5 O5         -8.3338    4.6094   52.6151 O.2     1  ZINC000672622940   -0.5300
      6 C6         -7.3710    3.2936   54.3213 C.3     1  ZINC000672622940   -0.1000
      7 H7         -6.4884    2.6540   54.3166 H       1  ZINC000672622940    0.1000
      8 C8         -7.0349    4.6213   55.0034 C.3     1  ZINC000672622940   -0.1300
      9 C9         -6.5890    4.3568   56.4428 C.3     1  ZINC000672622940   -0.1100
     10 C10        -7.7180    3.6623   57.2070 C.3     1  ZINC000672622940   -0.1300
     11 C11        -8.0540    2.3345   56.5249 C.3     1  ZINC000672622940    0.1400
     12 H12        -7.1714    1.6949   56.5202 H       1  ZINC000672622940    0.1000
     13 N13        -9.1350    1.6694   57.2567 N.am    1  ZINC000672622940   -0.6900
     14 C14        -8.8447    0.8029   58.2472 C.2     1  ZINC000672622940    0.5100
     15 O15        -7.6878    0.5747   58.5340 O.2     1  ZINC000672622940   -0.5100
     16 C16        -9.9474    0.1231   58.9924 C.2     1  ZINC000672622940    0.5100
     17 O17       -10.2736   -1.0074   58.6954 O.2     1  ZINC000672622940   -0.5200
     18 N18       -10.5796    0.7656   59.9945 N.am    1  ZINC000672622940   -0.5800
     19 C19       -11.6613    0.1083   60.7403 C.3     1  ZINC000672622940    0.0700
     20 C20       -11.3386    0.1727   62.2365 C.3     1  ZINC000672622940   -0.1200
     21 C21       -11.0921    1.6285   62.6389 C.3     1  ZINC000672622940    0.0000
     22 C22       -10.8077    1.6996   64.1171 C.2     1  ZINC000672622940    0.2000
     23 N23       -11.5227    2.3226   65.0136 N.2     1  ZINC000672622940   -0.2800
     24 N24       -10.9883    2.1733   66.1735 N.2     1  ZINC000672622940   -0.2800
     25 C25        -9.9075    1.4465   66.0686 C.2     1  ZINC000672622940    0.1500
     26 C26        -8.7796    0.8423   66.8768 C.3     1  ZINC000672622940   -0.0400
     27 C27        -8.1730   -0.2294   65.9425 C.3     1  ZINC000672622940   -0.1300
     28 C28        -8.5614    0.3101   64.5486 C.3     1  ZINC000672622940    0.1000
     29 N29        -9.7646    1.1230   64.7640 N.pl3   1  ZINC000672622940   -0.4900
     30 C30        -9.8936    2.1784   61.8621 C.3     1  ZINC000672622940   -0.1200
     31 C31       -10.1958    2.1344   60.3658 C.3     1  ZINC000672622940    0.1100
     32 C32        -8.4999    2.5990   55.0855 C.3     1  ZINC000672622940   -0.1100
     33 H33        -9.0755    2.5326   50.4469 H       1  ZINC000672622940    0.0600
     34 H34        -7.9839    3.9364   50.3686 H       1  ZINC000672622940    0.0800
     35 H35        -7.3973    2.3253   49.8909 H       1  ZINC000672622940    0.0700
     36 H36        -5.9108    1.4216   52.1798 H       1  ZINC000672622940    0.0600
     37 H37        -7.2185    1.0926   53.3418 H       1  ZINC000672622940    0.0800
     38 H38        -7.3728    0.5542   51.6522 H       1  ZINC000672622940    0.0700
     39 H39        -6.2306    5.1161   54.4590 H       1  ZINC000672622940    0.0800
     40 H40        -7.9176    5.2609   55.0082 H       1  ZINC000672622940    0.0700
     41 H41        -5.7064    3.7172   56.4381 H       1  ZINC000672622940    0.0700
     42 H42        -6.3497    5.3027   56.9287 H       1  ZINC000672622940    0.0700
     43 H43        -7.4003    3.4737   58.2325 H       1  ZINC000672622940    0.0700
     44 H44        -8.6006    4.3018   57.2117 H       1  ZINC000672622940    0.0700
     45 H45       -10.0597    1.8528   57.0282 H       1  ZINC000672622940    0.4100
     46 H46       -12.6030    0.6222   60.5472 H       1  ZINC000672622940    0.0700
     47 H47       -11.7402   -0.9330   60.4281 H       1  ZINC000672622940    0.1400
     48 H48       -12.1776   -0.2253   62.8072 H       1  ZINC000672622940    0.0800
     49 H49       -10.4456   -0.4176   62.4417 H       1  ZINC000672622940    0.0800
     50 H50       -11.9765    2.2233   62.4103 H       1  ZINC000672622940    0.0900
     51 H51        -8.0358    1.6010   67.1202 H       1  ZINC000672622940    0.1000
     52 H52        -9.1664    0.3810   67.7856 H       1  ZINC000672622940    0.1000
     53 H53        -7.0898   -0.2764   66.0545 H       1  ZINC000672622940    0.1100
     54 H54        -8.6250   -1.2048   66.1229 H       1  ZINC000672622940    0.0900
     55 H55        -7.7555    0.9222   64.1434 H       1  ZINC000672622940    0.1000
     56 H56        -8.7841   -0.5161   63.8734 H       1  ZINC000672622940    0.1000
     57 H57        -9.7040    3.2078   62.1663 H       1  ZINC000672622940    0.0800
     58 H58        -9.0142    1.5690   62.0709 H       1  ZINC000672622940    0.0800
     59 H59        -9.3095    2.4317   59.8051 H       1  ZINC000672622940    0.1000
     60 H60       -11.0185    2.8125   60.1391 H       1  ZINC000672622940    0.0800
     61 H61        -9.3826    3.2387   55.0903 H       1  ZINC000672622940    0.0800
     62 H62        -8.7393    1.6531   54.5997 H       1  ZINC000672622940    0.0800
@<TRIPOS>BOND
     1     1     2    1
     2     1    33    1
     3     1    34    1
     4     1    35    1
     5     2     3    1
     6     2     4   am
     7     3    36    1
     8     3    37    1
     9     3    38    1
    10     4     5    2
    11     4     6    1
    12     6     7    1
    13     6    32    1
    14     6     8    1
    15     8     9    1
    16     8    39    1
    17     8    40    1
    18     9    10    1
    19     9    41    1
    20     9    42    1
    21    10    11    1
    22    10    43    1
    23    10    44    1
    24    11    12    1
    25    11    13    1
    26    11    32    1
    27    13    14   am
    28    13    45    1
    29    14    15    2
    30    14    16    1
    31    16    17    2
    32    16    18   am
    33    18    31    1
    34    18    19    1
    35    19    20    1
    36    19    46    1
    37    19    47    1
    38    20    21    1
    39    20    48    1
    40    20    49    1
    41    21    22    1
    42    21    30    1
    43    21    50    1
    44    22    29    1
    45    22    23    2
    46    23    24    1
    47    24    25    2
    48    25    29    1
    49    25    26    1
    50    26    27    1
    51    26    51    1
    52    26    52    1
    53    27    28    1
    54    27    53    1
    55    27    54    1
    56    28    29    1
    57    28    55    1
    58    28    56    1
    59    30    31    1
    60    30    57    1
    61    30    58    1
    62    31    59    1
    63    31    60    1
    64    32    61    1
    65    32    62    1
@<TRIPOS>SUBSTRUCTURE
     1 ZINC000672622940        1 TEMP              0 ****  ****    0 ROOT


##########                                Name:    ZINC001143596311
##########                DOCK_Rotatable_Bonds:                   9
##########                         Heavy_Atoms:                  21
##########                    Molecular_Weight:             335.811
##########                DOCK_Rotatable_Bonds:                   9
##########                       Formal_Charge:          0.00999959
##########                     HBond_Acceptors:                   9
##########                        HBond_Donors:                   3
##########                         Heavy_Atoms:                  21
##########                          Grid_Score:          -30.561892
##########                     Grid_vdw_energy:          -29.741217
##########                      Grid_es_energy:           -0.820675
##########           Internal_energy_repulsive:           14.169043

@<TRIPOS>MOLECULE
ZINC001143596311
 39 39 1 0 0
SMALL
USER_CHARGES


@<TRIPOS>ATOM
      1 C1         -1.0427    2.9337   51.4184 C.3     1  ZINC001143596311    0.0400
      2 O2         -2.4365    3.0460   51.1233 O.3     1  ZINC001143596311   -0.2600
      3 N3         -3.3111    2.7342   52.2538 N.3     1  ZINC001143596311   -0.3700
      4 C4         -3.0015    3.5865   53.4096 C.3     1  ZINC001143596311    0.0000
      5 C5         -4.7251    2.8551   51.8744 C.3     1  ZINC001143596311    0.0400
      6 C6         -5.0540    1.8208   50.7960 C.3     1  ZINC001143596311   -0.1300
      7 C7         -6.4661    2.0712   50.2628 C.3     1  ZINC001143596311    0.1200
      8 N8         -7.4396    1.8480   51.3346 N.am    1  ZINC001143596311   -0.7200
      9 C9         -7.8380    0.5956   51.6330 C.2     1  ZINC001143596311    0.5600
     10 O10        -7.3885   -0.3490   51.0139 O.2     1  ZINC001143596311   -0.5200
     11 C11        -8.8213    0.3706   52.7131 C.ar    1  ZINC001143596311   -0.1500
     12 C12        -8.8740    1.2391   53.8048 C.ar    1  ZINC001143596311   -0.0200
     13 C13        -9.7938    1.0240   54.8097 C.ar    1  ZINC001143596311   -0.1300
     14 C14       -10.6638   -0.0511   54.7374 C.ar    1  ZINC001143596311    0.0700
     15 Cl15      -11.8189   -0.3153   56.0061 Cl      1  ZINC001143596311   -0.0200
     16 C16       -10.6163   -0.9163   53.6565 C.ar    1  ZINC001143596311   -0.6800
     17 S17       -11.7277   -2.2810   53.5731 S.o2    1  ZINC001143596311    2.7000
     18 N18       -13.2634   -1.6694   53.6731 N.am    1  ZINC001143596311   -1.2500
     19 O19       -11.5970   -2.8257   52.2672 O.2     1  ZINC001143596311   -0.9400
     20 O20       -11.5204   -3.0402   54.7562 O.2     1  ZINC001143596311   -0.9500
     21 C21        -9.7053   -0.7080   52.6428 C.ar    1  ZINC001143596311    0.0500
     22 H22        -0.7853    3.6218   52.2237 H       1  ZINC001143596311    0.0400
     23 H23        -0.8178    1.9128   51.7271 H       1  ZINC001143596311    0.0500
     24 H24        -0.4620    3.1809   50.5297 H       1  ZINC001143596311    0.0900
     25 H25        -3.1415    4.6327   53.1375 H       1  ZINC001143596311    0.0400
     26 H26        -3.6662    3.3338   54.2356 H       1  ZINC001143596311    0.0900
     27 H27        -1.9671    3.4252   53.7131 H       1  ZINC001143596311    0.0800
     28 H28        -5.3521    2.6803   52.7486 H       1  ZINC001143596311    0.0500
     29 H29        -4.9130    3.8564   51.4868 H       1  ZINC001143596311    0.0900
     30 H30        -4.3369    1.9065   49.9796 H       1  ZINC001143596311    0.0800
     31 H31        -4.9994    0.8198   51.2239 H       1  ZINC001143596311    0.0800
     32 H32        -6.5440    3.0994   49.9095 H       1  ZINC001143596311    0.0800
     33 H33        -6.6698    1.3875   49.4388 H       1  ZINC001143596311    0.0800
     34 H34        -7.7973    2.6017   51.8295 H       1  ZINC001143596311    0.4000
     35 H35        -8.1955    2.0774   53.8626 H       1  ZINC001143596311    0.1500
     36 H36        -9.8355    1.6951   55.6548 H       1  ZINC001143596311    0.1600
     37 H37       -14.0265   -2.2675   53.6439 H       1  ZINC001143596311    0.4200
     38 H38       -13.3998   -0.7130   53.7609 H       1  ZINC001143596311    0.4200
     39 H39        -9.6691   -1.3832   51.8006 H       1  ZINC001143596311    0.1700
@<TRIPOS>BOND
     1     1     2    1
     2     1    22    1
     3     1    23    1
     4     1    24    1
     5     2     3    1
     6     3     4    1
     7     3     5    1
     8     4    25    1
     9     4    26    1
    10     4    27    1
    11     5     6    1
    12     5    28    1
    13     5    29    1
    14     6     7    1
    15     6    30    1
    16     6    31    1
    17     7     8    1
    18     7    32    1
    19     7    33    1
    20     8     9   am
    21     8    34    1
    22     9    10    2
    23     9    11    1
    24    11    21   ar
    25    11    12   ar
    26    12    13   ar
    27    12    35    1
    28    13    14   ar
    29    13    36    1
    30    14    15    1
    31    14    16   ar
    32    16    17    1
    33    16    21   ar
    34    17    18   am
    35    17    19    2
    36    17    20    2
    37    18    37    1
    38    18    38    1
    39    21    39    1
@<TRIPOS>SUBSTRUCTURE
     1 ZINC001143596311        1 TEMP              0 ****  ****    0 ROOT


##########                                Name:    ZINC000504243286
##########                DOCK_Rotatable_Bonds:                   7
##########                         Heavy_Atoms:                  29
##########                    Molecular_Weight:             408.337
##########                DOCK_Rotatable_Bonds:                   7
##########                       Formal_Charge:           0.0299994
##########                     HBond_Acceptors:                  11
##########                        HBond_Donors:                   3
##########                         Heavy_Atoms:                  29
##########                          Grid_Score:          -30.556225
##########                     Grid_vdw_energy:          -29.149998
##########                      Grid_es_energy:           -1.406226
##########           Internal_energy_repulsive:           12.712731

@<TRIPOS>MOLECULE
ZINC000504243286
 44 46 1 0 0
SMALL
USER_CHARGES


@<TRIPOS>ATOM
      1 O1         -7.0749    1.8733   50.0161 O.2     1  ZINC000504243286   -0.5200
      2 C2         -6.4393    1.8062   51.0470 C.2     1  ZINC000504243286    0.5200
      3 C3         -4.9374    1.9265   51.0155 C.3     1  ZINC000504243286   -0.1600
      4 C4         -4.5386    3.3895   51.2186 C.3     1  ZINC000504243286    0.1300
      5 N5         -3.1530    3.4570   51.6896 N.pl3   1  ZINC000504243286   -0.7200
      6 C6         -2.8779    3.4177   53.0584 C.ar    1  ZINC000504243286    0.3100
      7 C7         -3.8638    3.0275   53.9554 C.ar    1  ZINC000504243286   -0.1900
      8 C8         -3.5884    2.9892   55.3084 C.ar    1  ZINC000504243286    0.0200
      9 C9         -2.3328    3.3388   55.7700 C.ar    1  ZINC000504243286   -0.2400
     10 C10        -2.0357    3.2952   57.2468 C.3     1  ZINC000504243286    0.5200
     11 F11        -2.3148    4.5425   57.8156 F       1  ZINC000504243286   -0.1700
     12 F12        -2.8310    2.3174   57.8538 F       1  ZINC000504243286   -0.1700
     13 F13        -0.6855    2.9853   57.4419 F       1  ZINC000504243286   -0.1700
     14 C14        -1.3487    3.7278   54.8794 C.ar    1  ZINC000504243286    0.0400
     15 C15        -1.6158    3.7632   53.5251 C.ar    1  ZINC000504243286   -0.1200
     16 N16        -0.5622    4.1796   52.5729 N.pl3   1  ZINC000504243286    0.0400
     17 O17        -0.4686    3.6305   51.4897 O.2     1  ZINC000504243286   -0.1700
     18 O18         0.2115    5.0714   52.8723 O.2     1  ZINC000504243286   -0.1400
     19 N19        -7.0768    1.6298   52.2213 N.am    1  ZINC000504243286   -0.6700
     20 C20        -8.4728    1.5181   52.2506 C.ar    1  ZINC000504243286    0.1200
     21 C21        -9.2620    2.6571   52.3377 C.ar    1  ZINC000504243286   -0.1000
     22 C22       -10.6366    2.5504   52.3663 C.ar    1  ZINC000504243286   -0.1200
     23 C23       -11.2443    1.2979   52.3084 C.ar    1  ZINC000504243286    0.1300
     24 N24       -12.5940    0.9376   52.3228 N.am    1  ZINC000504243286   -0.6600
     25 C25       -12.7657   -0.3930   52.2496 C.2     1  ZINC000504243286    0.5300
     26 O26       -13.8253   -0.9833   52.2426 O.2     1  ZINC000504243286   -0.5000
     27 C27       -11.3885   -1.0172   52.1772 C.3     1  ZINC000504243286   -0.1200
     28 C28       -10.4462    0.1636   52.2214 C.ar    1  ZINC000504243286   -0.1200
     29 C29        -9.0747    0.2666   52.1869 C.ar    1  ZINC000504243286   -0.0600
     30 H30        -4.5076    1.3188   51.8116 H       1  ZINC000504243286    0.1100
     31 H31        -4.5653    1.5789   50.0518 H       1  ZINC000504243286    0.1100
     32 H32        -4.6275    3.9250   50.2734 H       1  ZINC000504243286    0.0800
     33 H33        -5.1964    3.8461   51.9582 H       1  ZINC000504243286    0.0900
     34 H34        -2.4266    3.5291   51.0508 H       1  ZINC000504243286    0.4100
     35 H35        -4.8449    2.7546   53.5956 H       1  ZINC000504243286    0.1600
     36 H36        -4.3546    2.6862   56.0066 H       1  ZINC000504243286    0.1600
     37 H37        -0.3690    4.0002   55.2433 H       1  ZINC000504243286    0.1600
     38 H38        -6.5688    1.5803   53.0462 H       1  ZINC000504243286    0.4200
     39 H39        -8.7974    3.6309   52.3836 H       1  ZINC000504243286    0.1400
     40 H40       -11.2442    3.4407   52.4341 H       1  ZINC000504243286    0.1300
     41 H41       -13.3233    1.5746   52.3790 H       1  ZINC000504243286    0.4100
     42 H42       -11.2206   -1.6719   53.0324 H       1  ZINC000504243286    0.1300
     43 H43       -11.2674   -1.5676   51.2442 H       1  ZINC000504243286    0.1300
     44 H44        -8.4669   -0.6232   52.1140 H       1  ZINC000504243286    0.1500
@<TRIPOS>BOND
     1     1     2    2
     2     2     3    1
     3     2    19   am
     4     3     4    1
     5     3    30    1
     6     3    31    1
     7     4     5    1
     8     4    32    1
     9     4    33    1
    10     5     6    1
    11     5    34    1
    12     6    15   ar
    13     6     7   ar
    14     7     8   ar
    15     7    35    1
    16     8     9   ar
    17     8    36    1
    18     9    10    1
    19     9    14   ar
    20    10    11    1
    21    10    12    1
    22    10    13    1
    23    14    15   ar
    24    14    37    1
    25    15    16    1
    26    16    17    2
    27    16    18    2
    28    19    20    1
    29    19    38    1
    30    20    29   ar
    31    20    21   ar
    32    21    22   ar
    33    21    39    1
    34    22    23   ar
    35    22    40    1
    36    23    28   ar
    37    23    24    1
    38    24    25   am
    39    24    41    1
    40    25    26    2
    41    25    27    1
    42    27    28    1
    43    27    42    1
    44    27    43    1
    45    28    29   ar
    46    29    44    1
@<TRIPOS>SUBSTRUCTURE
     1 ZINC000504243286        1 TEMP              0 ****  ****    0 ROOT


##########                                Name:    ZINC000540473851
##########                DOCK_Rotatable_Bonds:                   5
##########                         Heavy_Atoms:                  29
##########                    Molecular_Weight:             411.503
##########                DOCK_Rotatable_Bonds:                   5
##########                       Formal_Charge:           0.0200001
##########                     HBond_Acceptors:                   8
##########                        HBond_Donors:                   0
##########                         Heavy_Atoms:                  29
##########                          Grid_Score:          -30.540436
##########                     Grid_vdw_energy:          -29.755062
##########                      Grid_es_energy:           -0.785374
##########           Internal_energy_repulsive:           27.180019

@<TRIPOS>MOLECULE
ZINC000540473851
 51 54 1 0 0
SMALL
USER_CHARGES


@<TRIPOS>ATOM
      1 C1         -7.6522    4.6707   52.1264 C.3     1  ZINC000540473851   -0.0800
      2 C2         -8.0148    3.2081   52.1132 C.2     1  ZINC000540473851    0.1500
      3 C3         -7.4033    2.2956   51.2951 C.2     1  ZINC000540473851   -0.3100
      4 C4         -6.3331    2.5780   50.3308 C.2     1  ZINC000540473851    0.6000
      5 O5         -6.6096    2.9711   49.2130 O.2     1  ZINC000540473851   -0.5100
      6 N6         -5.0444    2.4019   50.6837 N.am    1  ZINC000540473851   -0.6100
      7 C7         -3.9565    2.6846   49.7352 C.3     1  ZINC000540473851    0.1000
      8 C8         -2.9398    3.6038   50.4205 C.3     1  ZINC000540473851    0.0400
      9 N9         -2.5153    2.9988   51.6900 N.3     1  ZINC000540473851   -0.5300
     10 C10        -1.4157    3.7620   52.2952 C.3     1  ZINC000540473851    0.1200
     11 H11        -1.2649    3.4296   53.3224 H       1  ZINC000540473851    0.0500
     12 C12        -1.7639    5.2518   52.2871 C.3     1  ZINC000540473851   -0.1400
     13 C13        -0.1530    3.5369   51.5040 C.ar    1  ZINC000540473851   -0.0500
     14 C14         0.6866    2.4875   51.8266 C.ar    1  ZINC000540473851   -0.1000
     15 C15         1.8455    2.2798   51.1016 C.ar    1  ZINC000540473851   -0.0900
     16 C16         2.1655    3.1214   50.0535 C.ar    1  ZINC000540473851   -0.1500
     17 C17         1.3248    4.1729   49.7290 C.ar    1  ZINC000540473851    0.1000
     18 F18         1.6367    4.9963   48.7045 F       1  ZINC000540473851   -0.1400
     19 C19         0.1621    4.3767   50.4523 C.ar    1  ZINC000540473851   -0.1500
     20 C20        -3.6431    2.8710   52.6227 C.3     1  ZINC000540473851    0.0400
     21 C21        -4.6884    1.9277   52.0297 C.3     1  ZINC000540473851    0.1200
     22 S22        -8.1315    0.7219   51.6079 S.3     1  ZINC000540473851    0.2800
     23 C23        -9.1632    1.4189   52.7790 C.2     1  ZINC000540473851    0.0800
     24 C24       -10.1692    0.6734   53.5672 C.ar    1  ZINC000540473851    0.3800
     25 N25       -10.3377   -0.6233   53.3417 N.ar    1  ZINC000540473851   -0.5100
     26 C26       -11.2276   -1.3180   54.0282 C.ar    1  ZINC000540473851    0.1600
     27 C27       -11.9896   -0.6757   54.9936 C.ar    1  ZINC000540473851   -0.2100
     28 C28       -11.7878    0.6809   55.2040 C.ar    1  ZINC000540473851    0.1500
     29 N29       -10.8777    1.3161   54.4868 N.ar    1  ZINC000540473851   -0.4700
     30 N30        -8.9356    2.6971   52.8848 N.2     1  ZINC000540473851   -0.4300
     31 H31        -6.8582    4.8418   52.8534 H       1  ZINC000540473851    0.0900
     32 H32        -7.3084    4.9688   51.1360 H       1  ZINC000540473851    0.0800
     33 H33        -8.5279    5.2597   52.3995 H       1  ZINC000540473851    0.0800
     34 H34        -3.4709    1.7524   49.4465 H       1  ZINC000540473851    0.0900
     35 H35        -4.3602    3.1794   48.8518 H       1  ZINC000540473851    0.0900
     36 H36        -2.0731    3.7348   49.7724 H       1  ZINC000540473851    0.1000
     37 H37        -3.3989    4.5730   50.6149 H       1  ZINC000540473851    0.0400
     38 H38        -1.9147    5.5841   51.2600 H       1  ZINC000540473851    0.0700
     39 H39        -2.6772    5.4145   52.8594 H       1  ZINC000540473851    0.0600
     40 H40        -0.9480    5.8181   52.7362 H       1  ZINC000540473851    0.0600
     41 H41         0.4375    1.8293   52.6460 H       1  ZINC000540473851    0.1400
     42 H42         2.5010    1.4596   51.3548 H       1  ZINC000540473851    0.1300
     43 H43         3.0711    2.9594   49.4877 H       1  ZINC000540473851    0.1300
     44 H44        -0.4944    5.1962   50.1999 H       1  ZINC000540473851    0.1300
     45 H45        -3.2866    2.4706   53.5718 H       1  ZINC000540473851    0.1000
     46 H46        -4.0925    3.8505   52.7865 H       1  ZINC000540473851    0.0400
     47 H47        -5.5754    1.9192   52.6631 H       1  ZINC000540473851    0.1000
     48 H48        -4.2756    0.9213   51.9595 H       1  ZINC000540473851    0.0800
     49 H49       -11.3606   -2.3731   53.8399 H       1  ZINC000540473851    0.1800
     50 H50       -12.7242   -1.2198   55.5687 H       1  ZINC000540473851    0.1600
     51 H51       -12.3645    1.2103   55.9478 H       1  ZINC000540473851    0.1800
@<TRIPOS>BOND
     1     1     2    1
     2     1    31    1
     3     1    32    1
     4     1    33    1
     5     2    30    1
     6     2     3    2
     7     3     4    1
     8     3    22    1
     9     4     5    2
    10     4     6   am
    11     6    21    1
    12     6     7    1
    13     7     8    1
    14     7    34    1
    15     7    35    1
    16     8     9    1
    17     8    36    1
    18     8    37    1
    19     9    10    1
    20     9    20    1
    21    10    11    1
    22    10    12    1
    23    10    13    1
    24    12    38    1
    25    12    39    1
    26    12    40    1
    27    13    19   ar
    28    13    14   ar
    29    14    15   ar
    30    14    41    1
    31    15    16   ar
    32    15    42    1
    33    16    17   ar
    34    16    43    1
    35    17    18    1
    36    17    19   ar
    37    19    44    1
    38    20    21    1
    39    20    45    1
    40    20    46    1
    41    21    47    1
    42    21    48    1
    43    22    23    1
    44    23    24    1
    45    23    30    2
    46    24    29   ar
    47    24    25   ar
    48    25    26   ar
    49    26    27   ar
    50    26    49    1
    51    27    28   ar
    52    27    50    1
    53    28    29   ar
    54    28    51    1
@<TRIPOS>SUBSTRUCTURE
     1 ZINC000540473851        1 TEMP              0 ****  ****    0 ROOT


##########                                Name:    ZINC000676564986
##########                DOCK_Rotatable_Bonds:                   5
##########                         Heavy_Atoms:                  25
##########                    Molecular_Weight:             347.444
##########                DOCK_Rotatable_Bonds:                   5
##########                       Formal_Charge:          -0.0100005
##########                     HBond_Acceptors:                   6
##########                        HBond_Donors:                   1
##########                         Heavy_Atoms:                  25
##########                          Grid_Score:          -30.526459
##########                     Grid_vdw_energy:          -29.495546
##########                      Grid_es_energy:           -1.030912
##########           Internal_energy_repulsive:            4.445262

@<TRIPOS>MOLECULE
ZINC000676564986
 42 45 1 0 0
SMALL
USER_CHARGES


@<TRIPOS>ATOM
      1 C1          1.2152    1.0330   41.8433 C.3     1  ZINC000676564986    0.0800
      2 N2          1.1946    0.7191   43.2742 N.pl3   1  ZINC000676564986   -0.4800
      3 C3          0.1005    0.3675   44.0072 C.2     1  ZINC000676564986    0.2500
      4 N4          0.4430    0.1593   45.2454 N.2     1  ZINC000676564986   -0.4600
      5 C5          1.7749    0.3636   45.3853 C.ar    1  ZINC000676564986   -0.1100
      6 C6          2.6784    0.2905   46.4588 C.ar    1  ZINC000676564986    0.5100
      7 N7          2.2459   -0.0608   47.7256 N.pl3   1  ZINC000676564986   -0.6900
      8 C8          2.9320    0.4685   48.9068 C.3     1  ZINC000676564986    0.1700
      9 C9          2.0413    1.4676   49.5995 C.ar    1  ZINC000676564986   -0.0800
     10 C10         1.1221    1.0373   50.5391 C.ar    1  ZINC000676564986   -0.1100
     11 C11         0.3044    1.9498   51.1757 C.ar    1  ZINC000676564986   -0.0700
     12 C12         0.4058    3.3020   50.8713 C.ar    1  ZINC000676564986   -0.1300
     13 S13        -0.6352    4.4701   51.6815 S.3     1  ZINC000676564986   -0.0100
     14 C14        -2.1586    3.5993   51.8417 C.ar    1  ZINC000676564986   -0.1000
     15 C15        -2.8151    3.5638   53.0660 C.ar    1  ZINC000676564986   -0.1200
     16 C16        -4.0090    2.8809   53.1877 C.ar    1  ZINC000676564986   -0.1000
     17 C17        -4.5516    2.2326   52.0931 C.ar    1  ZINC000676564986   -0.1200
     18 C18        -3.9010    2.2657   50.8731 C.ar    1  ZINC000676564986   -0.1000
     19 C19        -2.7093    2.9511   50.7427 C.ar    1  ZINC000676564986   -0.1000
     20 C20         1.3305    3.7307   49.9266 C.ar    1  ZINC000676564986   -0.0700
     21 C21         2.1489    2.8131   49.2980 C.ar    1  ZINC000676564986   -0.1100
     22 N22         3.9582    0.5662   46.2294 N.ar    1  ZINC000676564986   -0.5900
     23 C23         4.3799    0.9017   45.0240 C.ar    1  ZINC000676564986    0.3600
     24 N24         3.5700    0.9834   43.9892 N.ar    1  ZINC000676564986   -0.5600
     25 C25         2.2743    0.7196   44.1209 C.ar    1  ZINC000676564986    0.3000
     26 H26         1.3891    0.1202   41.2736 H       1  ZINC000676564986    0.0800
     27 H27         0.2580    1.4659   41.5525 H       1  ZINC000676564986    0.0900
     28 H28         2.0136    1.7463   41.6392 H       1  ZINC000676564986    0.0900
     29 H29        -0.9027    0.2756   43.6180 H       1  ZINC000676564986    0.2200
     30 H30         1.4885   -0.6574   47.8314 H       1  ZINC000676564986    0.4200
     31 H31         3.1615   -0.3489   49.5904 H       1  ZINC000676564986    0.0800
     32 H32         3.8571    0.9573   48.6012 H       1  ZINC000676564986    0.0800
     33 H33         1.0437   -0.0137   50.7749 H       1  ZINC000676564986    0.1300
     34 H34        -0.4134    1.6131   51.9090 H       1  ZINC000676564986    0.1400
     35 H35        -2.3919    4.0695   53.9213 H       1  ZINC000676564986    0.1200
     36 H36        -4.5196    2.8526   54.1390 H       1  ZINC000676564986    0.1300
     37 H37        -5.4853    1.6989   52.1913 H       1  ZINC000676564986    0.1300
     38 H38        -4.3274    1.7584   50.0205 H       1  ZINC000676564986    0.1300
     39 H39        -2.2020    2.9768   49.7896 H       1  ZINC000676564986    0.1300
     40 H40         1.4120    4.7807   49.6875 H       1  ZINC000676564986    0.1300
     41 H41         2.8677    3.1455   48.5639 H       1  ZINC000676564986    0.1300
     42 H42         5.4285    1.1178   44.8815 H       1  ZINC000676564986    0.2000
@<TRIPOS>BOND
     1     1     2    1
     2     1    26    1
     3     1    27    1
     4     1    28    1
     5     2    25    1
     6     2     3    1
     7     3     4    2
     8     3    29    1
     9     4     5    1
    10     5    25   ar
    11     5     6   ar
    12     6     7    1
    13     6    22   ar
    14     7     8    1
    15     7    30    1
    16     8     9    1
    17     8    31    1
    18     8    32    1
    19     9    21   ar
    20     9    10   ar
    21    10    11   ar
    22    10    33    1
    23    11    12   ar
    24    11    34    1
    25    12    13    1
    26    12    20   ar
    27    13    14    1
    28    14    19   ar
    29    14    15   ar
    30    15    16   ar
    31    15    35    1
    32    16    17   ar
    33    16    36    1
    34    17    18   ar
    35    17    37    1
    36    18    19   ar
    37    18    38    1
    38    19    39    1
    39    20    21   ar
    40    20    40    1
    41    21    41    1
    42    22    23   ar
    43    23    24   ar
    44    23    42    1
    45    24    25   ar
@<TRIPOS>SUBSTRUCTURE
     1 ZINC000676564986        1 TEMP              0 ****  ****    0 ROOT


##########                                Name:    ZINC001490207225
##########                DOCK_Rotatable_Bonds:                   7
##########                         Heavy_Atoms:                  24
##########                    Molecular_Weight:             334.378
##########                DOCK_Rotatable_Bonds:                   7
##########                       Formal_Charge:           -0.010001
##########                     HBond_Acceptors:                   9
##########                        HBond_Donors:                   3
##########                         Heavy_Atoms:                  24
##########                          Grid_Score:          -30.513880
##########                     Grid_vdw_energy:          -28.164366
##########                      Grid_es_energy:           -2.349514
##########           Internal_energy_repulsive:            4.674586

@<TRIPOS>MOLECULE
ZINC001490207225
 46 48 1 0 0
SMALL
USER_CHARGES


@<TRIPOS>ATOM
      1 C1        -16.0923   -2.7145   55.2961 C.3     1  ZINC001490207225    0.0900
      2 N2        -14.6717   -2.4437   55.5305 N.pl3   1  ZINC001490207225   -0.3600
      3 C3        -13.9091   -3.0174   56.4747 C.2     1  ZINC001490207225    0.1300
      4 C4        -12.6391   -2.4891   56.3576 C.2     1  ZINC001490207225   -0.3000
      5 C5        -11.4699   -2.8283   57.1892 C.2     1  ZINC001490207225    0.6200
      6 O6        -10.6840   -3.6777   56.8156 O.2     1  ZINC001490207225   -0.5400
      7 N7        -11.2722   -2.1971   58.3635 N.am    1  ZINC001490207225   -0.6200
      8 C8        -12.1275   -1.1570   58.9580 C.3     1  ZINC001490207225    0.1100
      9 C9        -11.1959   -0.2374   59.7647 C.3     1  ZINC001490207225   -0.1100
     10 H10       -10.9993    0.7018   59.2475 H       1  ZINC001490207225    0.1000
     11 C11       -11.7998   -0.0121   61.1668 C.3     1  ZINC001490207225    0.1000
     12 N12       -10.6541   -0.1466   62.0958 N.am    1  ZINC001490207225   -0.6200
     13 C13       -10.3891    0.5889   63.1936 C.2     1  ZINC001490207225    0.5300
     14 O14       -11.1388    1.4852   63.5185 O.2     1  ZINC001490207225   -0.5300
     15 C15        -9.1614    0.2975   64.0176 C.3     1  ZINC001490207225    0.1200
     16 N16        -9.3606    0.7916   65.3823 N.am    1  ZINC001490207225   -0.7400
     17 C17        -8.6880    0.2308   66.4069 C.2     1  ZINC001490207225    0.7100
     18 N18        -8.8701    0.6863   67.6622 N.am    1  ZINC001490207225   -0.8600
     19 O19        -7.9170   -0.6860   66.1987 O.2     1  ZINC001490207225   -0.5900
     20 C20        -9.8660   -1.2729   61.5446 C.3     1  ZINC001490207225    0.1100
     21 C21        -9.9029   -1.0632   59.9910 C.3     1  ZINC001490207225   -0.0800
     22 C22        -8.6409   -0.3693   59.4742 C.3     1  ZINC001490207225   -0.1300
     23 C23       -10.1624   -2.4177   59.3050 C.3     1  ZINC001490207225    0.1000
     24 C24       -12.6695   -1.5626   55.2913 C.2     1  ZINC001490207225    0.0700
     25 N25       -13.8795   -1.5477   54.8039 N.2     1  ZINC001490207225   -0.2900
     26 H26       -16.1934   -3.5336   54.5842 H       1  ZINC001490207225    0.0800
     27 H27       -16.5696   -2.9897   56.2366 H       1  ZINC001490207225    0.0900
     28 H28       -16.5707   -1.8218   54.8934 H       1  ZINC001490207225    0.1000
     29 H29       -14.2301   -3.7564   57.1940 H       1  ZINC001490207225    0.1900
     30 H30       -12.6260   -0.5886   58.1728 H       1  ZINC001490207225    0.0900
     31 H31       -12.8664   -1.6123   59.6175 H       1  ZINC001490207225    0.0800
     32 H32       -12.2316    0.9861   61.2384 H       1  ZINC001490207225    0.0900
     33 H33       -12.5539   -0.7693   61.3816 H       1  ZINC001490207225    0.0900
     34 H34        -8.9873   -0.7782   64.0423 H       1  ZINC001490207225    0.1000
     35 H35        -8.2993    0.7951   63.5733 H       1  ZINC001490207225    0.1000
     36 H36        -9.9766    1.5221   65.5486 H       1  ZINC001490207225    0.4100
     37 H37        -8.3851    0.2834   68.3994 H       1  ZINC001490207225    0.4000
     38 H38        -9.4861    1.4168   67.8285 H       1  ZINC001490207225    0.4200
     39 H39        -8.8371   -1.2271   61.9015 H       1  ZINC001490207225    0.0900
     40 H40       -10.3215   -2.2248   61.8177 H       1  ZINC001490207225    0.0800
     41 H41        -7.7700   -0.9852   59.6984 H       1  ZINC001490207225    0.0700
     42 H42        -8.7190   -0.2289   58.3962 H       1  ZINC001490207225    0.0600
     43 H43        -8.5348    0.6006   59.9602 H       1  ZINC001490207225    0.0600
     44 H44       -10.4610   -3.1605   60.0448 H       1  ZINC001490207225    0.0800
     45 H45        -9.2658   -2.7499   58.7817 H       1  ZINC001490207225    0.0900
     46 H46       -11.8360   -0.9733   54.9387 H       1  ZINC001490207225    0.2000
@<TRIPOS>BOND
     1     1     2    1
     2     1    26    1
     3     1    27    1
     4     1    28    1
     5     2    25    1
     6     2     3    1
     7     3     4    2
     8     3    29    1
     9     4     5    1
    10     4    24    1
    11     5     6    2
    12     5     7   am
    13     7    23    1
    14     7     8    1
    15     8     9    1
    16     8    30    1
    17     8    31    1
    18     9    10    1
    19     9    21    1
    20     9    11    1
    21    11    12    1
    22    11    32    1
    23    11    33    1
    24    12    13   am
    25    12    20    1
    26    13    14    2
    27    13    15    1
    28    15    16    1
    29    15    34    1
    30    15    35    1
    31    16    17   am
    32    16    36    1
    33    17    18   am
    34    17    19    2
    35    18    37    1
    36    18    38    1
    37    20    21    1
    38    20    39    1
    39    20    40    1
    40    21    22    1
    41    21    23    1
    42    22    41    1
    43    22    42    1
    44    22    43    1
    45    23    44    1
    46    23    45    1
    47    24    25    2
    48    24    46    1
@<TRIPOS>SUBSTRUCTURE
     1 ZINC001490207225        1 TEMP              0 ****  ****    0 ROOT


##########                                Name:    ZINC000501032137
##########                DOCK_Rotatable_Bonds:                  10
##########                         Heavy_Atoms:                  25
##########                    Molecular_Weight:             407.307
##########                DOCK_Rotatable_Bonds:                  10
##########                       Formal_Charge:           0.0099998
##########                     HBond_Acceptors:                   5
##########                        HBond_Donors:                   1
##########                         Heavy_Atoms:                  25
##########                          Grid_Score:          -30.507078
##########                     Grid_vdw_energy:          -30.179117
##########                      Grid_es_energy:           -0.327961
##########           Internal_energy_repulsive:            9.002199

@<TRIPOS>MOLECULE
ZINC000501032137
 48 50 1 0 0
SMALL
USER_CHARGES


@<TRIPOS>ATOM
      1 C1        -15.4817   -2.7257   60.8049 C.3     1  ZINC000501032137   -0.1500
      2 C2        -16.3466   -2.8239   59.5466 C.3     1  ZINC000501032137   -0.1200
      3 C3        -15.5269   -3.4402   58.4111 C.3     1  ZINC000501032137    0.0600
      4 O4        -14.2929   -2.7325   58.2761 O.3     1  ZINC000501032137   -0.3800
      5 C5        -13.4681   -3.2010   57.2074 C.3     1  ZINC000501032137    0.0500
      6 C6        -13.0943   -2.0275   56.2995 C.3     1  ZINC000501032137    0.1600
      7 H7        -13.8521   -1.2485   56.3821 H       1  ZINC000501032137    0.1000
      8 C8        -13.0146   -2.5097   54.8496 C.3     1  ZINC000501032137   -0.0900
      9 C9        -12.4566   -1.4093   53.9843 C.ar    1  ZINC000501032137   -0.0600
     10 C10       -13.2519   -0.3338   53.6360 C.ar    1  ZINC000501032137   -0.0900
     11 C11       -12.7405    0.6761   52.8420 C.ar    1  ZINC000501032137   -0.1100
     12 C12       -11.4341    0.6106   52.3964 C.ar    1  ZINC000501032137   -0.0900
     13 C13       -10.6378   -0.4658   52.7447 C.ar    1  ZINC000501032137   -0.0800
     14 Br14       -8.8499   -0.5561   52.1351 Br      1  ZINC000501032137   -0.0600
     15 C15       -11.1479   -1.4729   53.5436 C.ar    1  ZINC000501032137   -0.0800
     16 N16       -11.7942   -1.4894   56.7073 N.am    1  ZINC000501032137   -0.7100
     17 C17       -11.6670   -0.1784   56.9927 C.2     1  ZINC000501032137    0.6100
     18 O18       -12.6318    0.5576   56.9131 O.2     1  ZINC000501032137   -0.5200
     19 C19       -10.3584    0.3634   57.4014 C.2     1  ZINC000501032137   -0.0800
     20 C20        -9.7472    0.1804   58.6035 C.2     1  ZINC000501032137    0.0800
     21 C21       -10.2794   -0.6136   59.7686 C.3     1  ZINC000501032137   -0.0800
     22 C22       -10.1826   -2.1383   59.6876 C.3     1  ZINC000501032137   -0.1700
     23 C23        -9.2652   -1.3628   60.6352 C.3     1  ZINC000501032137   -0.1500
     24 O24        -8.5798    0.8414   58.5538 O.3     1  ZINC000501032137   -0.2000
     25 C25        -8.4754    1.4180   57.3481 C.2     1  ZINC000501032137    0.1800
     26 N26        -9.5315    1.1357   56.6456 N.2     1  ZINC000501032137   -0.4600
     27 H27       -15.1495   -3.7222   61.0961 H       1  ZINC000501032137    0.0600
     28 H28       -14.6140   -2.0984   60.6013 H       1  ZINC000501032137    0.0600
     29 H29       -16.0657   -2.2867   61.6138 H       1  ZINC000501032137    0.0600
     30 H30       -17.2144   -3.4512   59.7502 H       1  ZINC000501032137    0.0700
     31 H31       -16.6789   -1.8274   59.2554 H       1  ZINC000501032137    0.0700
     32 H32       -15.3228   -4.4868   58.6370 H       1  ZINC000501032137    0.0500
     33 H33       -16.0885   -3.3723   57.4794 H       1  ZINC000501032137    0.0500
     34 H34       -12.5616   -3.6469   57.6165 H       1  ZINC000501032137    0.0700
     35 H35       -14.0119   -3.9485   56.6296 H       1  ZINC000501032137    0.0600
     36 H36       -12.3640   -3.3823   54.7922 H       1  ZINC000501032137    0.0900
     37 H37       -14.0119   -2.7765   54.5001 H       1  ZINC000501032137    0.0800
     38 H38       -14.2730   -0.2823   53.9838 H       1  ZINC000501032137    0.1200
     39 H39       -13.3623    1.5162   52.5699 H       1  ZINC000501032137    0.1300
     40 H40       -11.0348    1.3994   51.7760 H       1  ZINC000501032137    0.1300
     41 H41       -10.5266   -2.3132   53.8161 H       1  ZINC000501032137    0.1200
     42 H42       -11.0249   -2.0767   56.7720 H       1  ZINC000501032137    0.4100
     43 H43       -11.1515   -0.1901   60.2669 H       1  ZINC000501032137    0.1500
     44 H44       -10.9912   -2.7183   60.1325 H       1  ZINC000501032137    0.1100
     45 H45        -9.7339   -2.5672   58.7917 H       1  ZINC000501032137    0.1000
     46 H46        -8.2130   -1.2815   60.3625 H       1  ZINC000501032137    0.1000
     47 H47        -9.4702   -1.4326   61.7034 H       1  ZINC000501032137    0.1100
     48 H48        -7.6434    2.0192   57.0123 H       1  ZINC000501032137    0.2500
@<TRIPOS>BOND
     1     1     2    1
     2     1    27    1
     3     1    28    1
     4     1    29    1
     5     2     3    1
     6     2    30    1
     7     2    31    1
     8     3     4    1
     9     3    32    1
    10     3    33    1
    11     4     5    1
    12     5     6    1
    13     5    34    1
    14     5    35    1
    15     6     7    1
    16     6     8    1
    17     6    16    1
    18     8     9    1
    19     8    36    1
    20     8    37    1
    21     9    15   ar
    22     9    10   ar
    23    10    11   ar
    24    10    38    1
    25    11    12   ar
    26    11    39    1
    27    12    13   ar
    28    12    40    1
    29    13    14    1
    30    13    15   ar
    31    15    41    1
    32    16    17   am
    33    16    42    1
    34    17    18    2
    35    17    19    1
    36    19    26    1
    37    19    20    2
    38    20    21    1
    39    20    24    1
    40    21    23    1
    41    21    22    1
    42    21    43    1
    43    22    23    1
    44    22    44    1
    45    22    45    1
    46    23    46    1
    47    23    47    1
    48    24    25    1
    49    25    26    2
    50    25    48    1
@<TRIPOS>SUBSTRUCTURE
     1 ZINC000501032137        1 TEMP              0 ****  ****    0 ROOT


##########                                Name:    ZINC000892389374
##########                DOCK_Rotatable_Bonds:                   6
##########                         Heavy_Atoms:                  25
##########                    Molecular_Weight:             371.383
##########                DOCK_Rotatable_Bonds:                   6
##########                       Formal_Charge:          -0.0199998
##########                     HBond_Acceptors:                   9
##########                        HBond_Donors:                   1
##########                         Heavy_Atoms:                  25
##########                          Grid_Score:          -30.506792
##########                     Grid_vdw_energy:          -29.961798
##########                      Grid_es_energy:           -0.544995
##########           Internal_energy_repulsive:           11.118322

@<TRIPOS>MOLECULE
ZINC000892389374
 41 43 1 0 0
SMALL
USER_CHARGES


@<TRIPOS>ATOM
      1 C1        -10.7257   -0.3634   53.8604 C.3     1  ZINC000892389374   -0.1000
      2 C2         -9.5203    0.2155   53.1652 C.ar    1  ZINC000892389374   -0.1800
      3 C3         -8.7454   -0.5838   52.3475 C.ar    1  ZINC000892389374   -0.0400
      4 C4         -7.6397   -0.0566   51.7080 C.ar    1  ZINC000892389374   -0.2100
      5 C5         -7.3036    1.2792   51.8861 C.ar    1  ZINC000892389374    0.2200
      6 N6         -6.1835    1.8121   51.2380 N.am    1  ZINC000892389374   -0.5700
      7 C7         -4.7840    1.6102   51.6435 C.3     1  ZINC000892389374    0.0600
      8 C8         -3.9803    2.4071   50.5979 C.3     1  ZINC000892389374    0.0400
      9 O9         -5.0003    2.9685   49.7219 O.3     1  ZINC000892389374   -0.3200
     10 C10        -6.2107    2.5846   50.1434 C.2     1  ZINC000892389374    0.6400
     11 O11        -7.2409    2.9135   49.5893 O.2     1  ZINC000892389374   -0.5000
     12 C12        -8.0797    2.0851   52.7067 C.ar    1  ZINC000892389374   -0.2300
     13 C13        -9.1928    1.5545   53.3431 C.ar    1  ZINC000892389374    0.2400
     14 N14        -9.9767    2.3621   54.1700 N.pl3   1  ZINC000892389374   -0.7400
     15 C15        -9.3529    3.1228   55.2556 C.3     1  ZINC000892389374    0.2000
     16 C16        -9.0635    2.2017   56.4127 C.2     1  ZINC000892389374   -0.2400
     17 C17        -7.8855    1.6353   56.6912 C.2     1  ZINC000892389374    0.0600
     18 N18        -7.8880    0.8670   57.7619 N.2     1  ZINC000892389374   -0.4500
     19 C19        -9.0026    0.7538   58.4021 C.2     1  ZINC000892389374    0.0200
     20 C20        -9.2035   -0.0759   59.6440 C.3     1  ZINC000892389374   -0.0900
     21 C21       -10.4898    0.3619   60.3472 C.3     1  ZINC000892389374    0.4600
     22 F22       -11.5800    0.1587   59.4942 F       1  ZINC000892389374   -0.1800
     23 F23       -10.6634   -0.3912   61.5133 F       1  ZINC000892389374   -0.1800
     24 F24       -10.4025    1.7187   60.6769 F       1  ZINC000892389374   -0.1700
     25 S25       -10.2166    1.6872   57.6416 S.3     1  ZINC000892389374    0.1900
     26 H26       -11.6017   -0.2526   53.2213 H       1  ZINC000892389374    0.0700
     27 H27       -10.5553   -1.4207   54.0631 H       1  ZINC000892389374    0.0700
     28 H28       -10.8919    0.1645   54.7995 H       1  ZINC000892389374    0.0600
     29 H29        -9.0041   -1.6230   52.2080 H       1  ZINC000892389374    0.1300
     30 H30        -7.0358   -0.6843   51.0693 H       1  ZINC000892389374    0.1200
     31 H31        -4.6137    2.0099   52.6431 H       1  ZINC000892389374    0.1000
     32 H32        -4.5225    0.5529   51.6030 H       1  ZINC000892389374    0.1000
     33 H33        -3.4100    3.2018   51.0787 H       1  ZINC000892389374    0.1100
     34 H34        -3.3188    1.7452   50.0388 H       1  ZINC000892389374    0.1100
     35 H35        -7.8201    3.1241   52.8469 H       1  ZINC000892389374    0.1600
     36 H36       -10.9342    2.4195   54.0256 H       1  ZINC000892389374    0.4000
     37 H37        -8.4216    3.5646   54.9012 H       1  ZINC000892389374    0.0900
     38 H38       -10.0293    3.9132   55.5809 H       1  ZINC000892389374    0.0800
     39 H39        -7.0037    1.7942   56.0882 H       1  ZINC000892389374    0.1800
     40 H40        -9.2794   -1.1281   59.3696 H       1  ZINC000892389374    0.1300
     41 H41        -8.3565    0.0642   60.3156 H       1  ZINC000892389374    0.1400
@<TRIPOS>BOND
     1     1     2    1
     2     1    26    1
     3     1    27    1
     4     1    28    1
     5     2    13   ar
     6     2     3   ar
     7     3     4   ar
     8     3    29    1
     9     4     5   ar
    10     4    30    1
    11     5     6    1
    12     5    12   ar
    13     6    10   am
    14     6     7    1
    15     7     8    1
    16     7    31    1
    17     7    32    1
    18     8     9    1
    19     8    33    1
    20     8    34    1
    21     9    10    1
    22    10    11    2
    23    12    13   ar
    24    12    35    1
    25    13    14    1
    26    14    15    1
    27    14    36    1
    28    15    16    1
    29    15    37    1
    30    15    38    1
    31    16    25    1
    32    16    17    2
    33    17    18    1
    34    17    39    1
    35    18    19    2
    36    19    20    1
    37    19    25    1
    38    20    21    1
    39    20    40    1
    40    20    41    1
    41    21    22    1
    42    21    23    1
    43    21    24    1
@<TRIPOS>SUBSTRUCTURE
     1 ZINC000892389374        1 TEMP              0 ****  ****    0 ROOT


##########                                Name:    ZINC000821442454
##########                DOCK_Rotatable_Bonds:                   6
##########                         Heavy_Atoms:                  26
##########                    Molecular_Weight:             398.873
##########                DOCK_Rotatable_Bonds:                   6
##########                       Formal_Charge:          -0.0399996
##########                     HBond_Acceptors:                  11
##########                        HBond_Donors:                   2
##########                         Heavy_Atoms:                  26
##########                          Grid_Score:          -30.506613
##########                     Grid_vdw_energy:          -30.284466
##########                      Grid_es_energy:           -0.222147
##########           Internal_energy_repulsive:            9.929710

@<TRIPOS>MOLECULE
ZINC000821442454
 45 47 1 0 0
SMALL
USER_CHARGES


@<TRIPOS>ATOM
      1 C1        -15.4907    0.0830   60.9453 C.3     1  ZINC000821442454   -0.1500
      2 C2        -15.9816   -1.3466   61.1823 C.3     1  ZINC000821442454   -0.6300
      3 S3        -14.8295   -2.5171   60.4121 S.o2    1  ZINC000821442454    2.6000
      4 O4        -13.4986   -2.2602   60.8382 O.2     1  ZINC000821442454   -0.9500
      5 O5        -15.3654   -3.8331   60.4360 O.2     1  ZINC000821442454   -0.9500
      6 N6        -14.8318   -2.1044   58.8083 N.am    1  ZINC000821442454   -1.0000
      7 C7        -16.0738   -2.1522   58.0248 C.3     1  ZINC000821442454    0.1100
      8 C8        -15.8380   -3.0118   56.7789 C.3     1  ZINC000821442454   -0.1300
      9 C9        -14.6308   -2.4692   56.0107 C.3     1  ZINC000821442454   -0.1100
     10 C10       -13.3841   -2.5479   56.8948 C.3     1  ZINC000821442454   -0.1200
     11 H11       -13.2146   -3.5824   57.1936 H       1  ZINC000821442454    0.1100
     12 C12       -12.1896   -2.0443   56.1261 C.2     1  ZINC000821442454    0.5300
     13 O13       -11.0887   -2.5021   56.3479 O.2     1  ZINC000821442454   -0.5100
     14 N14       -12.3449   -1.0851   55.1922 N.am    1  ZINC000821442454   -0.6700
     15 C15       -11.2364   -0.6176   54.4787 C.ar    1  ZINC000821442454    0.1800
     16 C16       -10.5725    0.5274   54.9005 C.ar    1  ZINC000821442454   -0.1200
     17 C17        -9.4789    0.9899   54.1989 C.ar    1  ZINC000821442454   -0.0500
     18 C18        -9.0394    0.3082   53.0660 C.ar    1  ZINC000821442454   -0.0300
     19 C19        -7.8625    0.8044   52.3101 C.2     1  ZINC000821442454    0.2200
     20 N20        -7.0874    0.1007   51.5089 N.2     1  ZINC000821442454   -0.2900
     21 N21        -6.1799    0.8895   51.0452 N.pl3   1  ZINC000821442454   -0.2200
     22 N22        -6.3554    2.0703   51.5269 N.2     1  ZINC000821442454   -0.0400
     23 N23        -7.3842    2.0568   52.3046 N.2     1  ZINC000821442454   -0.2700
     24 C24        -9.7063   -0.8406   52.6437 C.ar    1  ZINC000821442454   -0.0500
     25 C25       -10.7966   -1.3031   53.3512 C.ar    1  ZINC000821442454   -0.0800
     26 Cl26      -11.6281   -2.7338   52.8262 Cl      1  ZINC000821442454   -0.0500
     27 C27       -13.5931   -1.6777   58.1434 C.3     1  ZINC000821442454    0.1400
     28 H28       -14.5008    0.2047   61.3852 H       1  ZINC000821442454    0.0700
     29 H29       -15.4384    0.2762   59.8739 H       1  ZINC000821442454    0.0700
     30 H30       -16.1830    0.7863   61.4081 H       1  ZINC000821442454    0.0800
     31 H31       -16.0340   -1.5399   62.2538 H       1  ZINC000821442454    0.1300
     32 H32       -16.9715   -1.4684   60.7423 H       1  ZINC000821442454    0.1300
     33 H33       -16.8690   -2.5918   58.6269 H       1  ZINC000821442454    0.1000
     34 H34       -16.3555   -1.1430   57.7245 H       1  ZINC000821442454    0.0700
     35 H35       -15.6455   -4.0419   57.0788 H       1  ZINC000821442454    0.0700
     36 H36       -16.7210   -2.9771   56.1406 H       1  ZINC000821442454    0.0800
     37 H37       -14.4757   -3.0641   55.1106 H       1  ZINC000821442454    0.0700
     38 H38       -14.8138   -1.4313   55.7326 H       1  ZINC000821442454    0.0800
     39 H39       -13.2255   -0.7189   55.0148 H       1  ZINC000821442454    0.4200
     40 H40       -10.9133    1.0561   55.7785 H       1  ZINC000821442454    0.1600
     41 H41        -8.9636    1.8804   54.5273 H       1  ZINC000821442454    0.1500
     42 H42        -5.4750    0.6335   50.4300 H       1  ZINC000821442454    0.4800
     43 H43        -9.3673   -1.3704   51.7658 H       1  ZINC000821442454    0.1500
     44 H44       -13.6714   -0.6308   57.8503 H       1  ZINC000821442454    0.0800
     45 H45       -12.7514   -1.8068   58.8238 H       1  ZINC000821442454    0.1000
@<TRIPOS>BOND
     1     1     2    1
     2     1    28    1
     3     1    29    1
     4     1    30    1
     5     2     3    1
     6     2    31    1
     7     2    32    1
     8     3     4    2
     9     3     5    2
    10     3     6   am
    11     6    27    1
    12     6     7    1
    13     7     8    1
    14     7    33    1
    15     7    34    1
    16     8     9    1
    17     8    35    1
    18     8    36    1
    19     9    10    1
    20     9    37    1
    21     9    38    1
    22    10    11    1
    23    10    12    1
    24    10    27    1
    25    12    13    2
    26    12    14   am
    27    14    15    1
    28    14    39    1
    29    15    25   ar
    30    15    16   ar
    31    16    17   ar
    32    16    40    1
    33    17    18   ar
    34    17    41    1
    35    18    19    1
    36    18    24   ar
    37    19    23    1
    38    19    20    2
    39    20    21    1
    40    21    22    1
    41    21    42    1
    42    22    23    2
    43    24    25   ar
    44    24    43    1
    45    25    26    1
    46    27    44    1
    47    27    45    1
@<TRIPOS>SUBSTRUCTURE
     1 ZINC000821442454        1 TEMP              0 ****  ****    0 ROOT


##########                                Name:    ZINC000826435081
##########                DOCK_Rotatable_Bonds:                   7
##########                         Heavy_Atoms:                  28
##########                    Molecular_Weight:             388.361
##########                DOCK_Rotatable_Bonds:                   7
##########                       Formal_Charge:           0.0099996
##########                     HBond_Acceptors:                  12
##########                        HBond_Donors:                   3
##########                         Heavy_Atoms:                  28
##########                          Grid_Score:          -30.499943
##########                     Grid_vdw_energy:          -28.799784
##########                      Grid_es_energy:           -1.700159
##########           Internal_energy_repulsive:            9.382230

@<TRIPOS>MOLECULE
ZINC000826435081
 45 48 1 0 0
SMALL
USER_CHARGES


@<TRIPOS>ATOM
      1 O1        -10.3179    0.0715   63.3437 O.2     1  ZINC000826435081   -0.5700
      2 C2         -9.2484   -0.3950   63.0016 C.2     1  ZINC000826435081    0.7200
      3 N3         -8.2213   -0.4362   63.8733 N.am    1  ZINC000826435081   -0.7300
      4 C4         -8.3915    0.0868   65.2310 C.3     1  ZINC000826435081    0.1500
      5 C5         -7.8974    1.5337   65.2860 C.3     1  ZINC000826435081    0.0400
      6 H6         -8.3215    2.0953   64.4535 H       1  ZINC000826435081    0.0800
      7 C7         -6.3690    1.5567   65.1931 C.3     1  ZINC000826435081    0.0300
      8 O8         -5.9089    2.9014   65.3572 O.3     1  ZINC000826435081   -0.3800
      9 C9         -6.3130    3.4981   66.5933 C.3     1  ZINC000826435081    0.0200
     10 C10        -7.8415    3.4752   66.6861 C.3     1  ZINC000826435081    0.0200
     11 O11        -8.3029    2.1310   66.5213 O.3     1  ZINC000826435081   -0.3700
     12 N12        -9.0919   -0.8762   61.7524 N.am    1  ZINC000826435081   -0.6400
     13 C13       -10.1596   -0.8334   60.8462 C.2     1  ZINC000826435081    0.3300
     14 N14       -10.6129   -1.8443   60.1428 N.2     1  ZINC000826435081   -0.2800
     15 N15       -11.6832   -1.3895   59.3619 N.pl3   1  ZINC000826435081   -0.3300
     16 C16       -12.4392   -2.1608   58.4720 C.ar    1  ZINC000826435081    0.2200
     17 C17       -11.9152   -2.5121   57.2369 C.ar    1  ZINC000826435081   -0.1300
     18 C18       -12.6621   -3.2737   56.3584 C.ar    1  ZINC000826435081   -0.0500
     19 C19       -13.9352   -3.6903   56.7030 C.ar    1  ZINC000826435081   -0.1500
     20 C20       -14.4715   -3.3480   57.9310 C.ar    1  ZINC000826435081    0.1500
     21 F21       -15.7151   -3.7572   58.2640 F       1  ZINC000826435081   -0.1100
     22 C22       -13.7240   -2.5851   58.8274 C.ar    1  ZINC000826435081   -0.0500
     23 C23       -14.2934   -2.2145   60.1463 C.2     1  ZINC000826435081    0.2100
     24 N24       -13.7419   -2.4160   61.3269 N.2     1  ZINC000826435081   -0.2800
     25 N25       -14.5465   -1.9544   62.2216 N.pl3   1  ZINC000826435081   -0.2300
     26 N26       -15.5896   -1.4671   61.6459 N.2     1  ZINC000826435081   -0.0500
     27 N27       -15.4663   -1.6043   60.3694 N.2     1  ZINC000826435081   -0.2300
     28 C28       -11.8577   -0.0678   59.6210 C.2     1  ZINC000826435081    0.0700
     29 C29       -10.9336    0.2977   60.5383 C.2     1  ZINC000826435081   -0.2400
     30 H30        -7.3694   -0.8122   63.6016 H       1  ZINC000826435081    0.4000
     31 H31        -9.4462    0.0524   65.5042 H       1  ZINC000826435081    0.0800
     32 H32        -7.8154   -0.5206   65.9293 H       1  ZINC000826435081    0.0900
     33 H33        -5.9469    0.9289   65.9778 H       1  ZINC000826435081    0.0700
     34 H34        -6.0576    1.1816   64.2182 H       1  ZINC000826435081    0.1100
     35 H35        -5.8891    2.9356   67.4251 H       1  ZINC000826435081    0.0600
     36 H36        -5.9611    4.5290   66.6323 H       1  ZINC000826435081    0.1100
     37 H37        -8.1528    3.8504   67.6610 H       1  ZINC000826435081    0.1100
     38 H38        -8.2635    4.1030   65.9014 H       1  ZINC000826435081    0.0600
     39 H39        -8.2399   -1.2521   61.4807 H       1  ZINC000826435081    0.4100
     40 H40       -10.9221   -2.1896   56.9612 H       1  ZINC000826435081    0.1500
     41 H41       -12.2497   -3.5447   55.3977 H       1  ZINC000826435081    0.1500
     42 H42       -14.5127   -4.2846   56.0104 H       1  ZINC000826435081    0.1500
     43 H43       -14.3904   -1.9716   63.1788 H       1  ZINC000826435081    0.4800
     44 H44       -12.6038    0.5751   59.1776 H       1  ZINC000826435081    0.1800
     45 H45       -10.8080    1.2862   60.9548 H       1  ZINC000826435081    0.1800
@<TRIPOS>BOND
     1     1     2    2
     2     2     3   am
     3     2    12   am
     4     3     4    1
     5     3    30    1
     6     4     5    1
     7     4    31    1
     8     4    32    1
     9     5     6    1
    10     5    11    1
    11     5     7    1
    12     7     8    1
    13     7    33    1
    14     7    34    1
    15     8     9    1
    16     9    10    1
    17     9    35    1
    18     9    36    1
    19    10    11    1
    20    10    37    1
    21    10    38    1
    22    12    13    1
    23    12    39    1
    24    13    29    1
    25    13    14    2
    26    14    15    1
    27    15    16    1
    28    15    28    1
    29    16    22   ar
    30    16    17   ar
    31    17    18   ar
    32    17    40    1
    33    18    19   ar
    34    18    41    1
    35    19    20   ar
    36    19    42    1
    37    20    21    1
    38    20    22   ar
    39    22    23    1
    40    23    27    1
    41    23    24    2
    42    24    25    1
    43    25    26    1
    44    25    43    1
    45    26    27    2
    46    28    29    2
    47    28    44    1
    48    29    45    1
@<TRIPOS>SUBSTRUCTURE
     1 ZINC000826435081        1 TEMP              0 ****  ****    0 ROOT


##########                                Name:    ZINC000989658617
##########                DOCK_Rotatable_Bonds:                   6
##########                         Heavy_Atoms:                  24
##########                    Molecular_Weight:             334.418
##########                DOCK_Rotatable_Bonds:                   6
##########                       Formal_Charge:          -0.0100001
##########                     HBond_Acceptors:                   7
##########                        HBond_Donors:                   2
##########                         Heavy_Atoms:                  24
##########                          Grid_Score:          -30.495140
##########                     Grid_vdw_energy:          -27.860748
##########                      Grid_es_energy:           -2.634392
##########           Internal_energy_repulsive:           13.623499

@<TRIPOS>MOLECULE
ZINC000989658617
 50 52 1 0 0
SMALL
USER_CHARGES


@<TRIPOS>ATOM
      1 C1         -2.0018    2.9375   63.8246 C.3     1  ZINC000989658617    0.0300
      2 O2         -2.6061    2.0302   64.7486 O.3     1  ZINC000989658617   -0.3700
      3 C3         -3.9034    2.4317   65.1934 C.3     1  ZINC000989658617    0.0500
      4 C4         -4.4433    1.4069   66.1574 C.2     1  ZINC000989658617    0.5300
      5 O5         -3.6824    0.7715   66.8560 O.2     1  ZINC000989658617   -0.5100
      6 N6         -5.7718    1.1966   66.2432 N.am    1  ZINC000989658617   -0.6200
      7 C7         -6.4326    0.2299   67.1386 C.3     1  ZINC000989658617    0.1000
      8 C8         -7.7893   -0.0785   66.4575 C.3     1  ZINC000989658617   -0.1500
      9 C9         -8.1681    1.3090   65.8755 C.3     1  ZINC000989658617    0.1400
     10 H10        -8.6386    1.9311   66.6369 H       1  ZINC000989658617    0.1100
     11 N11        -9.0480    1.1610   64.7135 N.am    1  ZINC000989658617   -0.7100
     12 C12       -10.3677    1.4075   64.8317 C.2     1  ZINC000989658617    0.6100
     13 O13       -10.8283    1.7511   65.9030 O.2     1  ZINC000989658617   -0.5200
     14 C14       -11.2545    1.2600   63.6597 C.2     1  ZINC000989658617   -0.0100
     15 N15       -12.4931    1.7080   63.5452 N.2     1  ZINC000989658617   -0.2600
     16 N16       -12.9701    1.4033   62.3878 N.pl3   1  ZINC000989658617   -0.3700
     17 C17       -12.0524    0.7305   61.6743 C.2     1  ZINC000989658617    0.0100
     18 C18       -10.9439    0.6216   62.4474 C.2     1  ZINC000989658617   -0.1400
     19 C19        -9.6751   -0.0690   62.0292 C.3     1  ZINC000989658617   -0.0400
     20 C20        -9.9845   -0.9472   60.8092 C.3     1  ZINC000989658617   -0.0900
     21 H21       -10.5949   -1.7959   61.1180 H       1  ZINC000989658617    0.0700
     22 C22        -8.6754   -1.4550   60.2015 C.3     1  ZINC000989658617   -0.1500
     23 C23       -10.7453   -0.1241   59.7663 C.3     1  ZINC000989658617   -0.1100
     24 C24       -12.1588    0.1790   60.2758 C.3     1  ZINC000989658617   -0.0500
     25 C25        -6.8024    1.8981   65.4638 C.3     1  ZINC000989658617    0.1300
     26 H26        -6.6326    1.7321   64.3999 H       1  ZINC000989658617    0.0800
     27 C27        -6.7693    3.3971   65.7681 C.3     1  ZINC000989658617   -0.1600
     28 H28        -2.6316    3.0280   62.9396 H       1  ZINC000989658617    0.0500
     29 H29        -1.8925    3.9152   64.2942 H       1  ZINC000989658617    0.0400
     30 H30        -1.0204    2.5616   63.5354 H       1  ZINC000989658617    0.0900
     31 H31        -3.8334    3.3983   65.6921 H       1  ZINC000989658617    0.0800
     32 H32        -4.5724    2.5125   64.3366 H       1  ZINC000989658617    0.0800
     33 H33        -5.8357   -0.6782   67.2235 H       1  ZINC000989658617    0.0800
     34 H34        -6.5937    0.6720   68.1218 H       1  ZINC000989658617    0.0800
     35 H35        -7.6691   -0.8156   65.6634 H       1  ZINC000989658617    0.0800
     36 H36        -8.5269   -0.4104   67.1881 H       1  ZINC000989658617    0.1000
     37 H37        -8.6807    0.8856   63.8590 H       1  ZINC000989658617    0.4100
     38 H38       -13.8614    1.6270   62.0773 H       1  ZINC000989658617    0.4500
     39 H39        -8.9221    0.6738   61.7659 H       1  ZINC000989658617    0.0800
     40 H40        -9.3088   -0.6907   62.8461 H       1  ZINC000989658617    0.0800
     41 H41        -8.1338   -2.0417   60.9436 H       1  ZINC000989658617    0.0600
     42 H42        -8.8950   -2.0788   59.3350 H       1  ZINC000989658617    0.0600
     43 H43        -8.0648   -0.6065   59.8929 H       1  ZINC000989658617    0.0600
     44 H44       -10.2182    0.8132   59.5888 H       1  ZINC000989658617    0.0700
     45 H45       -10.8075   -0.6868   58.8348 H       1  ZINC000989658617    0.0800
     46 H46       -12.7479   -0.7378   60.2916 H       1  ZINC000989658617    0.0800
     47 H47       -12.6351    0.9110   59.6235 H       1  ZINC000989658617    0.0800
     48 H48        -6.9217    3.5546   66.8358 H       1  ZINC000989658617    0.0600
     49 H49        -5.8023    3.8061   65.4750 H       1  ZINC000989658617    0.0700
     50 H50        -7.5601    3.8987   65.2104 H       1  ZINC000989658617    0.0700
@<TRIPOS>BOND
     1     1     2    1
     2     1    28    1
     3     1    29    1
     4     1    30    1
     5     2     3    1
     6     3     4    1
     7     3    31    1
     8     3    32    1
     9     4     5    2
    10     4     6   am
    11     6    25    1
    12     6     7    1
    13     7     8    1
    14     7    33    1
    15     7    34    1
    16     8     9    1
    17     8    35    1
    18     8    36    1
    19     9    10    1
    20     9    11    1
    21     9    25    1
    22    11    12   am
    23    11    37    1
    24    12    13    2
    25    12    14    1
    26    14    18    1
    27    14    15    2
    28    15    16    1
    29    16    17    1
    30    16    38    1
    31    17    24    1
    32    17    18    2
    33    18    19    1
    34    19    20    1
    35    19    39    1
    36    19    40    1
    37    20    21    1
    38    20    22    1
    39    20    23    1
    40    22    41    1
    41    22    42    1
    42    22    43    1
    43    23    24    1
    44    23    44    1
    45    23    45    1
    46    24    46    1
    47    24    47    1
    48    25    26    1
    49    25    27    1
    50    27    48    1
    51    27    49    1
    52    27    50    1
@<TRIPOS>SUBSTRUCTURE
     1 ZINC000989658617        1 TEMP              0 ****  ****    0 ROOT


##########                                Name:    ZINC000190927708
##########                DOCK_Rotatable_Bonds:                  10
##########                         Heavy_Atoms:                  26
##########                    Molecular_Weight:             358.437
##########                DOCK_Rotatable_Bonds:                  10
##########                       Formal_Charge:           0.0499998
##########                     HBond_Acceptors:                   6
##########                        HBond_Donors:                   1
##########                         Heavy_Atoms:                  26
##########                          Grid_Score:          -30.480610
##########                     Grid_vdw_energy:          -30.663906
##########                      Grid_es_energy:            0.183296
##########           Internal_energy_repulsive:           23.836485

@<TRIPOS>MOLECULE
ZINC000190927708
 52 53 1 0 0
SMALL
USER_CHARGES


@<TRIPOS>ATOM
      1 C1         -2.5258    3.4635   52.2981 C.3     1  ZINC000190927708   -0.1500
      2 C2         -3.8129    2.7701   52.7493 C.3     1  ZINC000190927708   -0.1500
      3 C3         -4.8429    3.8241   53.1603 C.3     1  ZINC000190927708    0.1000
      4 N4         -5.7098    3.2774   54.2071 N.am    1  ZINC000190927708   -0.5900
      5 C5         -6.7853    2.5369   53.8728 C.2     1  ZINC000190927708    0.5300
      6 O6         -7.5021    2.0832   54.7394 O.2     1  ZINC000190927708   -0.5300
      7 C7         -7.0968    2.2729   52.4223 C.3     1  ZINC000190927708   -0.0800
      8 C8         -8.2634    1.3239   52.3238 C.2     1  ZINC000190927708   -0.1700
      9 C9         -9.5216    1.7741   52.5541 C.2     1  ZINC000190927708    0.0000
     10 C10       -10.6332    0.8269   52.4498 C.ar    1  ZINC000190927708   -0.1300
     11 C11       -11.9525    1.2323   52.6750 C.ar    1  ZINC000190927708   -0.0500
     12 C12       -12.9677    0.3238   52.5689 C.ar    1  ZINC000190927708   -0.1500
     13 C13       -12.7011   -0.9978   52.2397 C.ar    1  ZINC000190927708   -0.0600
     14 C14       -11.4084   -1.4198   52.0139 C.ar    1  ZINC000190927708   -0.1600
     15 C15       -10.3589   -0.5129   52.1156 C.ar    1  ZINC000190927708    0.1900
     16 N16        -9.0565   -0.9073   51.8946 N.am    1  ZINC000190927708   -0.6300
     17 C17        -8.0429   -0.0287   51.9865 C.2     1  ZINC000190927708    0.5500
     18 O18        -6.9038   -0.4125   51.7845 O.2     1  ZINC000190927708   -0.5300
     19 C19        -5.4079    3.5356   55.6172 C.3     1  ZINC000190927708    0.1500
     20 H20        -5.9357    2.8132   56.2400 H       1  ZINC000190927708    0.1400
     21 C21        -5.8586    4.9508   55.9844 C.3     1  ZINC000190927708   -0.1300
     22 C22        -6.0061    5.0613   57.5032 C.3     1  ZINC000190927708   -0.1500
     23 C23        -3.9239    3.4059   55.8452 C.2     1  ZINC000190927708    0.4500
     24 O24        -3.2040    4.3651   55.6978 O.2     1  ZINC000190927708   -0.5000
     25 O25        -3.4020    2.2250   56.2120 O.3     1  ZINC000190927708   -0.3500
     26 C26        -2.1206    2.2541   56.8944 C.3     1  ZINC000190927708    0.0600
     27 C27        -2.3169    2.7543   58.3269 C.3     1  ZINC000190927708   -0.1500
     28 H28        -2.1276    4.0600   53.1189 H       1  ZINC000190927708    0.0600
     29 H29        -1.7921    2.7126   52.0052 H       1  ZINC000190927708    0.0600
     30 H30        -2.7409    4.1119   51.4487 H       1  ZINC000190927708    0.0600
     31 H31        -4.2112    2.1736   51.9284 H       1  ZINC000190927708    0.0800
     32 H32        -3.5978    2.1216   53.5986 H       1  ZINC000190927708    0.0700
     33 H33        -4.3280    4.7069   53.5392 H       1  ZINC000190927708    0.0900
     34 H34        -5.4467    4.0988   52.2954 H       1  ZINC000190927708    0.0900
     35 H35        -7.3490    3.2111   51.9281 H       1  ZINC000190927708    0.1100
     36 H36        -6.2263    1.8299   51.9385 H       1  ZINC000190927708    0.1200
     37 H37        -9.6998    2.8083   52.8090 H       1  ZINC000190927708    0.1400
     38 H38       -12.1681    2.2589   52.9319 H       1  ZINC000190927708    0.1400
     39 H39       -13.9865    0.6370   52.7432 H       1  ZINC000190927708    0.1300
     40 H40       -13.5151   -1.7033   52.1599 H       1  ZINC000190927708    0.1300
     41 H41       -11.2114   -2.4505   51.7582 H       1  ZINC000190927708    0.1300
     42 H42        -8.8691   -1.8310   51.6654 H       1  ZINC000190927708    0.4200
     43 H43        -5.1162    5.6699   55.6381 H       1  ZINC000190927708    0.0900
     44 H44        -6.8172    5.1615   55.5100 H       1  ZINC000190927708    0.0800
     45 H45        -6.3272    6.0696   57.7648 H       1  ZINC000190927708    0.0600
     46 H46        -6.7485    4.3423   57.8494 H       1  ZINC000190927708    0.0600
     47 H47        -5.0475    4.8507   57.9775 H       1  ZINC000190927708    0.0600
     48 H48        -1.6972    1.2498   56.9150 H       1  ZINC000190927708    0.0700
     49 H49        -1.4424    2.9236   56.3654 H       1  ZINC000190927708    0.0700
     50 H50        -2.7403    3.7585   58.3063 H       1  ZINC000190927708    0.0700
     51 H51        -2.9952    2.0848   58.8558 H       1  ZINC000190927708    0.0700
     52 H52        -1.3549    2.7761   58.8391 H       1  ZINC000190927708    0.0800
@<TRIPOS>BOND
     1     1     2    1
     2     1    28    1
     3     1    29    1
     4     1    30    1
     5     2     3    1
     6     2    31    1
     7     2    32    1
     8     3     4    1
     9     3    33    1
    10     3    34    1
    11     4     5   am
    12     4    19    1
    13     5     6    2
    14     5     7    1
    15     7     8    1
    16     7    35    1
    17     7    36    1
    18     8    17    1
    19     8     9    2
    20     9    10    1
    21     9    37    1
    22    10    15   ar
    23    10    11   ar
    24    11    12   ar
    25    11    38    1
    26    12    13   ar
    27    12    39    1
    28    13    14   ar
    29    13    40    1
    30    14    15   ar
    31    14    41    1
    32    15    16    1
    33    16    17   am
    34    16    42    1
    35    17    18    2
    36    19    20    1
    37    19    21    1
    38    19    23    1
    39    21    22    1
    40    21    43    1
    41    21    44    1
    42    22    45    1
    43    22    46    1
    44    22    47    1
    45    23    24    2
    46    23    25    1
    47    25    26    1
    48    26    27    1
    49    26    48    1
    50    26    49    1
    51    27    50    1
    52    27    51    1
    53    27    52    1
@<TRIPOS>SUBSTRUCTURE
     1 ZINC000190927708        1 TEMP              0 ****  ****    0 ROOT


##########                                Name:    ZINC000509132103
##########                DOCK_Rotatable_Bonds:                   7
##########                         Heavy_Atoms:                  29
##########                    Molecular_Weight:              405.52
##########                DOCK_Rotatable_Bonds:                   7
##########                       Formal_Charge:          -0.0499998
##########                     HBond_Acceptors:                   6
##########                        HBond_Donors:                   0
##########                         Heavy_Atoms:                  29
##########                          Grid_Score:          -30.473015
##########                     Grid_vdw_energy:          -30.497427
##########                      Grid_es_energy:            0.024411
##########           Internal_energy_repulsive:           15.451731

@<TRIPOS>MOLECULE
ZINC000509132103
 52 55 1 0 0
SMALL
USER_CHARGES


@<TRIPOS>ATOM
      1 C1          2.2178    0.0557   50.5427 C.3     1  ZINC000509132103    0.0300
      2 O2          2.2252    1.4829   50.6138 O.3     1  ZINC000509132103   -0.3000
      3 C3          1.0208    2.1014   50.7050 C.ar    1  ZINC000509132103    0.2700
      4 C4          0.9444    3.4912   50.6713 C.ar    1  ZINC000509132103   -0.1300
      5 C5         -0.3097    4.0752   50.7680 C.ar    1  ZINC000509132103   -0.0700
      6 C6         -1.4099    3.2395   50.8924 C.ar    1  ZINC000509132103    0.0500
      7 C7         -2.7938    3.8262   51.0004 C.3     1  ZINC000509132103   -0.0500
      8 S8         -3.9853    2.7163   50.2011 S.3     1  ZINC000509132103   -0.1500
      9 C9         -5.5408    3.6437   50.3057 C.3     1  ZINC000509132103   -0.1300
     10 C10        -5.8381    3.9649   51.7477 C.2     1  ZINC000509132103    0.5400
     11 O11        -5.6646    5.0897   52.1668 O.2     1  ZINC000509132103   -0.5100
     12 N12        -6.2970    3.0021   52.5717 N.am    1  ZINC000509132103   -0.6100
     13 C13        -6.5175    1.6322   52.0958 C.3     1  ZINC000509132103    0.1500
     14 C14        -7.8391    1.1216   52.6129 C.ar    1  ZINC000509132103   -0.1000
     15 C15        -8.3331   -0.0581   52.0740 C.ar    1  ZINC000509132103   -0.1100
     16 C16        -9.5322   -0.5809   52.5136 C.ar    1  ZINC000509132103   -0.1200
     17 C17       -10.2454    0.0751   53.4993 C.ar    1  ZINC000509132103   -0.1200
     18 C18        -9.7573    1.2499   54.0329 C.ar    1  ZINC000509132103   -0.1100
     19 C19        -8.5534    1.7817   53.5879 C.ar    1  ZINC000509132103   -0.0600
     20 C20        -8.0965    3.0811   54.1970 C.3     1  ZINC000509132103   -0.0200
     21 H21        -8.6384    3.9048   53.7324 H       1  ZINC000509132103    0.1000
     22 C22        -8.3899    3.0659   55.6751 C.ar    1  ZINC000509132103   -0.0800
     23 C23        -7.9215    2.0305   56.4620 C.ar    1  ZINC000509132103   -0.1100
     24 C24        -8.1907    2.0167   57.8179 C.ar    1  ZINC000509132103   -0.1200
     25 C25        -8.9279    3.0383   58.3868 C.ar    1  ZINC000509132103   -0.1200
     26 C26        -9.3955    4.0741   57.5998 C.ar    1  ZINC000509132103   -0.1200
     27 C27        -9.1227    4.0903   56.2447 C.ar    1  ZINC000509132103   -0.1100
     28 C28        -6.5911    3.2818   53.9869 C.3     1  ZINC000509132103    0.1200
     29 N29        -1.2445    1.9317   50.9157 N.ar    1  ZINC000509132103   -0.1900
     30 N30        -0.0867    1.3859   50.8209 N.ar    1  ZINC000509132103   -0.3000
     31 H31         1.6583   -0.2614   49.6626 H       1  ZINC000509132103    0.0600
     32 H32         3.2423   -0.3100   50.4731 H       1  ZINC000509132103    0.1000
     33 H33         1.7471   -0.3503   51.4381 H       1  ZINC000509132103    0.0600
     34 H34         1.8340    4.0956   50.5732 H       1  ZINC000509132103    0.1600
     35 H35        -0.4263    5.1486   50.7476 H       1  ZINC000509132103    0.1600
     36 H36        -3.0569    3.9456   52.0514 H       1  ZINC000509132103    0.1100
     37 H37        -2.8157    4.7983   50.5077 H       1  ZINC000509132103    0.1000
     38 H38        -5.4503    4.5699   49.7383 H       1  ZINC000509132103    0.1100
     39 H39        -6.3508    3.0424   49.8928 H       1  ZINC000509132103    0.1100
     40 H40        -6.5269    1.6239   51.0059 H       1  ZINC000509132103    0.1000
     41 H41        -5.7143    0.9894   52.4559 H       1  ZINC000509132103    0.0900
     42 H42        -7.7750   -0.5706   51.3044 H       1  ZINC000509132103    0.1200
     43 H43        -9.9115   -1.4988   52.0896 H       1  ZINC000509132103    0.1300
     44 H44       -11.1826   -0.3307   53.8504 H       1  ZINC000509132103    0.1200
     45 H45       -10.3160    1.7608   54.8030 H       1  ZINC000509132103    0.1200
     46 H46        -7.3455    1.2323   56.0177 H       1  ZINC000509132103    0.1200
     47 H47        -7.8253    1.2074   58.4327 H       1  ZINC000509132103    0.1200
     48 H48        -9.1389    3.0271   59.4459 H       1  ZINC000509132103    0.1200
     49 H49        -9.9718    4.8722   58.0442 H       1  ZINC000509132103    0.1200
     50 H50        -9.4881    4.8995   55.6299 H       1  ZINC000509132103    0.1200
     51 H51        -6.0349    2.5967   54.6269 H       1  ZINC000509132103    0.0800
     52 H52        -6.3197    4.3107   54.2233 H       1  ZINC000509132103    0.1000
@<TRIPOS>BOND
     1     1     2    1
     2     1    31    1
     3     1    32    1
     4     1    33    1
     5     2     3    1
     6     3    30   ar
     7     3     4   ar
     8     4     5   ar
     9     4    34    1
    10     5     6   ar
    11     5    35    1
    12     6     7    1
    13     6    29   ar
    14     7     8    1
    15     7    36    1
    16     7    37    1
    17     8     9    1
    18     9    10    1
    19     9    38    1
    20     9    39    1
    21    10    11    2
    22    10    12   am
    23    12    28    1
    24    12    13    1
    25    13    14    1
    26    13    40    1
    27    13    41    1
    28    14    19   ar
    29    14    15   ar
    30    15    16   ar
    31    15    42    1
    32    16    17   ar
    33    16    43    1
    34    17    18   ar
    35    17    44    1
    36    18    19   ar
    37    18    45    1
    38    19    20    1
    39    20    21    1
    40    20    22    1
    41    20    28    1
    42    22    27   ar
    43    22    23   ar
    44    23    24   ar
    45    23    46    1
    46    24    25   ar
    47    24    47    1
    48    25    26   ar
    49    25    48    1
    50    26    27   ar
    51    26    49    1
    52    27    50    1
    53    28    51    1
    54    28    52    1
    55    29    30   ar
@<TRIPOS>SUBSTRUCTURE
     1 ZINC000509132103        1 TEMP              0 ****  ****    0 ROOT


##########                                Name:    ZINC000880838037
##########                DOCK_Rotatable_Bonds:                   9
##########                         Heavy_Atoms:                  24
##########                    Molecular_Weight:             365.477
##########                DOCK_Rotatable_Bonds:                   9
##########                       Formal_Charge:           0.0200001
##########                     HBond_Acceptors:                   8
##########                        HBond_Donors:                   3
##########                         Heavy_Atoms:                  24
##########                          Grid_Score:          -30.452492
##########                     Grid_vdw_energy:          -30.195211
##########                      Grid_es_energy:           -0.257280
##########           Internal_energy_repulsive:           12.230702

@<TRIPOS>MOLECULE
ZINC000880838037
 43 44 1 0 0
SMALL
USER_CHARGES


@<TRIPOS>ATOM
      1 C1        -14.1549   -3.9678   57.3238 C.3     1  ZINC000880838037    0.0300
      2 O2        -12.7473   -3.9423   57.0788 O.3     1  ZINC000880838037   -0.3100
      3 C3        -12.1750   -2.7235   56.8950 C.ar    1  ZINC000880838037    0.1400
      4 C4        -11.9844   -1.8758   57.9769 C.ar    1  ZINC000880838037   -0.2200
      5 C5        -11.4025   -0.6359   57.7915 C.ar    1  ZINC000880838037   -0.0700
      6 C6        -11.0095   -0.2363   56.5291 C.ar    1  ZINC000880838037   -0.1500
      7 C7        -11.1983   -1.0808   55.4422 C.ar    1  ZINC000880838037    0.1800
      8 N8        -10.8002   -0.6761   54.1632 N.am    1  ZINC000880838037   -0.6700
      9 C9        -11.5024    0.2681   53.5061 C.2     1  ZINC000880838037    0.5200
     10 O10       -12.4794    0.7670   54.0233 O.2     1  ZINC000880838037   -0.4900
     11 C11       -11.0736    0.7039   52.1288 C.3     1  ZINC000880838037   -0.0600
     12 C12        -9.5685    0.7223   52.0536 C.2     1  ZINC000880838037    0.1000
     13 C13        -8.8460   -0.3713   51.8086 C.2     1  ZINC000880838037   -0.2600
     14 S14        -7.1447    0.0858   51.8064 S.3     1  ZINC000880838037    0.1300
     15 C15        -7.5693    1.7088   52.1362 C.2     1  ZINC000880838037    0.0100
     16 S16        -6.4230    3.0334   52.3268 S.3     1  ZINC000880838037    0.1000
     17 C17        -4.8962    2.2029   51.8215 C.3     1  ZINC000880838037   -0.1500
     18 H18        -4.9788    1.1353   52.0255 H       1  ZINC000880838037    0.1200
     19 C19        -3.7170    2.7823   52.6053 C.3     1  ZINC000880838037   -0.1500
     20 C20        -4.6726    2.4166   50.3466 C.2     1  ZINC000880838037    0.5400
     21 N21        -3.4444    2.2435   49.8192 N.am    1  ZINC000880838037   -0.8400
     22 O22        -5.5977    2.7445   49.6342 O.2     1  ZINC000880838037   -0.5200
     23 N23        -8.8590    1.8241   52.2197 N.2     1  ZINC000880838037   -0.4200
     24 C24       -11.7762   -2.3286   55.6275 C.ar    1  ZINC000880838037   -0.1500
     25 C25       -11.9826   -3.2472   54.4507 C.3     1  ZINC000880838037   -0.1000
     26 H26       -14.6790   -3.5227   56.4780 H       1  ZINC000880838037    0.0600
     27 H27       -14.4828   -4.9994   57.4524 H       1  ZINC000880838037    0.1000
     28 H28       -14.3767   -3.4008   58.2279 H       1  ZINC000880838037    0.0600
     29 H29       -12.2913   -2.1852   58.9651 H       1  ZINC000880838037    0.1300
     30 H30       -11.2553    0.0220   58.6352 H       1  ZINC000880838037    0.1300
     31 H31       -10.5554    0.7332   56.3868 H       1  ZINC000880838037    0.1400
     32 H32       -10.0187   -1.0751   53.7497 H       1  ZINC000880838037    0.4100
     33 H33       -11.4658    0.0066   51.3884 H       1  ZINC000880838037    0.1200
     34 H34       -11.4596    1.7031   51.9271 H       1  ZINC000880838037    0.1200
     35 H35        -9.2358   -1.3644   51.6413 H       1  ZINC000880838037    0.1800
     36 H36        -3.6345    3.8498   52.4014 H       1  ZINC000880838037    0.0900
     37 H37        -3.8787    2.6277   53.6722 H       1  ZINC000880838037    0.0800
     38 H38        -2.7976    2.2821   52.3011 H       1  ZINC000880838037    0.0800
     39 H39        -3.3006    2.3799   48.8697 H       1  ZINC000880838037    0.4000
     40 H40        -2.7042    1.9824   50.3893 H       1  ZINC000880838037    0.4100
     41 H41       -11.1020   -3.8765   54.3222 H       1  ZINC000880838037    0.0700
     42 H42       -12.8553   -3.8755   54.6289 H       1  ZINC000880838037    0.0700
     43 H43       -12.1399   -2.6540   53.5499 H       1  ZINC000880838037    0.0600
@<TRIPOS>BOND
     1     1     2    1
     2     1    26    1
     3     1    27    1
     4     1    28    1
     5     2     3    1
     6     3    24   ar
     7     3     4   ar
     8     4     5   ar
     9     4    29    1
    10     5     6   ar
    11     5    30    1
    12     6     7   ar
    13     6    31    1
    14     7     8    1
    15     7    24   ar
    16     8     9   am
    17     8    32    1
    18     9    10    2
    19     9    11    1
    20    11    12    1
    21    11    33    1
    22    11    34    1
    23    12    23    1
    24    12    13    2
    25    13    14    1
    26    13    35    1
    27    14    15    1
    28    15    16    1
    29    15    23    2
    30    16    17    1
    31    17    18    1
    32    17    19    1
    33    17    20    1
    34    19    36    1
    35    19    37    1
    36    19    38    1
    37    20    21   am
    38    20    22    2
    39    21    39    1
    40    21    40    1
    41    24    25    1
    42    25    41    1
    43    25    42    1
    44    25    43    1
@<TRIPOS>SUBSTRUCTURE
     1 ZINC000880838037        1 TEMP              0 ****  ****    0 ROOT


##########                                Name:    ZINC001015666108
##########                DOCK_Rotatable_Bonds:                   7
##########                         Heavy_Atoms:                  25
##########                    Molecular_Weight:             346.429
##########                DOCK_Rotatable_Bonds:                   7
##########                       Formal_Charge:          -0.0199997
##########                     HBond_Acceptors:                   7
##########                        HBond_Donors:                   1
##########                         Heavy_Atoms:                  25
##########                          Grid_Score:          -30.432901
##########                     Grid_vdw_energy:          -29.891310
##########                      Grid_es_energy:           -0.541592
##########           Internal_energy_repulsive:           14.201846

@<TRIPOS>MOLECULE
ZINC001015666108
 51 53 1 0 0
SMALL
USER_CHARGES


@<TRIPOS>ATOM
      1 C1         -4.7794    4.4647   53.3193 C.3     1  ZINC001015666108   -0.1400
      2 C2         -3.8717    3.2331   53.3030 C.3     1  ZINC001015666108   -0.0700
      3 C3         -3.0524    3.2297   52.0382 C.2     1  ZINC001015666108   -0.0700
      4 C4         -3.4930    2.9237   50.7825 C.2     1  ZINC001015666108   -0.0900
      5 C5         -4.8599    2.5354   50.4198 C.2     1  ZINC001015666108    0.6100
      6 O6         -5.3449    2.9225   49.3728 O.2     1  ZINC001015666108   -0.5100
      7 N7         -5.5789    1.7497   51.2457 N.am    1  ZINC001015666108   -0.7200
      8 C8         -6.9437    1.3602   50.8825 C.3     1  ZINC001015666108    0.1400
      9 H9         -7.0672    1.3816   49.7997 H       1  ZINC001015666108    0.1100
     10 C10        -7.2634   -0.0493   51.4312 C.3     1  ZINC001015666108   -0.1300
     11 C11        -8.0149    0.2552   52.7514 C.3     1  ZINC001015666108    0.0300
     12 N12        -8.8270    1.4516   52.4122 N.3     1  ZINC001015666108   -0.5100
     13 C13        -9.2333    2.1733   53.6255 C.3     1  ZINC001015666108    0.1700
     14 H14        -8.3463    2.5015   54.1673 H       1  ZINC001015666108    0.0900
     15 C15       -10.0734    3.3916   53.2369 C.3     1  ZINC001015666108   -0.1500
     16 C16       -10.0492    1.2600   54.5038 C.2     1  ZINC001015666108    0.1900
     17 N17       -10.7823    0.2470   54.1094 N.2     1  ZINC001015666108   -0.4800
     18 C18       -11.3208   -0.2680   55.2291 C.2     1  ZINC001015666108    0.1800
     19 C19       -12.2467   -1.4541   55.3097 C.3     1  ZINC001015666108    0.0000
     20 C20       -12.4611   -2.0300   53.9086 C.3     1  ZINC001015666108   -0.1500
     21 C21       -11.6280   -2.5238   56.2117 C.3     1  ZINC001015666108   -0.1500
     22 N22       -10.8955    0.4450   56.2288 N.2     1  ZINC001015666108   -0.3800
     23 O23       -10.1590    1.3244   55.8341 O.3     1  ZINC001015666108    0.1000
     24 C24        -7.9639    2.2972   51.5554 C.3     1  ZINC001015666108    0.0300
     25 O25        -2.4507    3.0413   49.9341 O.3     1  ZINC001015666108   -0.1700
     26 C26        -1.3608    3.4135   50.6177 C.2     1  ZINC001015666108    0.0000
     27 C27        -1.6899    3.5464   51.9216 C.2     1  ZINC001015666108   -0.2200
     28 H28        -5.3720    4.4672   54.2342 H       1  ZINC001015666108    0.0600
     29 H29        -4.1688    5.3666   53.2795 H       1  ZINC001015666108    0.0600
     30 H30        -5.4442    4.4376   52.4559 H       1  ZINC001015666108    0.0500
     31 H31        -3.2069    3.2603   54.1664 H       1  ZINC001015666108    0.0900
     32 H32        -4.4824    2.3312   53.3428 H       1  ZINC001015666108    0.0700
     33 H33        -5.1928    1.4421   52.0807 H       1  ZINC001015666108    0.4000
     34 H34        -7.9046   -0.5961   50.7397 H       1  ZINC001015666108    0.0900
     35 H35        -6.3459   -0.6036   51.6285 H       1  ZINC001015666108    0.0800
     36 H36        -8.6579   -0.5800   53.0294 H       1  ZINC001015666108    0.0800
     37 H37        -7.3104    0.4825   53.5514 H       1  ZINC001015666108    0.0500
     38 H38       -10.9604    3.0635   52.6951 H       1  ZINC001015666108    0.0800
     39 H39       -10.3749    3.9271   54.1371 H       1  ZINC001015666108    0.0700
     40 H40        -9.4833    4.0522   52.6017 H       1  ZINC001015666108    0.0800
     41 H41       -13.2048   -1.1396   55.7236 H       1  ZINC001015666108    0.1000
     42 H42       -11.5030   -2.3444   53.4945 H       1  ZINC001015666108    0.0600
     43 H43       -13.1308   -2.8879   53.9668 H       1  ZINC001015666108    0.0700
     44 H44       -12.9019   -1.2679   53.2659 H       1  ZINC001015666108    0.0600
     45 H45       -10.6699   -2.8383   55.7977 H       1  ZINC001015666108    0.0600
     46 H46       -11.4754   -2.1136   57.2099 H       1  ZINC001015666108    0.0600
     47 H47       -12.2977   -3.3818   56.2699 H       1  ZINC001015666108    0.0700
     48 H48        -7.4436    3.0352   52.1659 H       1  ZINC001015666108    0.0600
     49 H49        -8.5680    2.7970   50.7983 H       1  ZINC001015666108    0.1000
     50 H50        -0.3813    3.5836   50.1958 H       1  ZINC001015666108    0.2100
     51 H51        -1.0275    3.8355   52.7242 H       1  ZINC001015666108    0.1600
@<TRIPOS>BOND
     1     1     2    1
     2     1    28    1
     3     1    29    1
     4     1    30    1
     5     2     3    1
     6     2    31    1
     7     2    32    1
     8     3    27    1
     9     3     4    2
    10     4     5    1
    11     4    25    1
    12     5     6    2
    13     5     7   am
    14     7     8    1
    15     7    33    1
    16     8     9    1
    17     8    24    1
    18     8    10    1
    19    10    11    1
    20    10    34    1
    21    10    35    1
    22    11    12    1
    23    11    36    1
    24    11    37    1
    25    12    13    1
    26    12    24    1
    27    13    14    1
    28    13    15    1
    29    13    16    1
    30    15    38    1
    31    15    39    1
    32    15    40    1
    33    16    23    1
    34    16    17    2
    35    17    18    1
    36    18    19    1
    37    18    22    2
    38    19    20    1
    39    19    21    1
    40    19    41    1
    41    20    42    1
    42    20    43    1
    43    20    44    1
    44    21    45    1
    45    21    46    1
    46    21    47    1
    47    22    23    1
    48    24    48    1
    49    24    49    1
    50    25    26    1
    51    26    27    2
    52    26    50    1
    53    27    51    1
@<TRIPOS>SUBSTRUCTURE
     1 ZINC001015666108        1 TEMP              0 ****  ****    0 ROOT


##########                                Name:    ZINC000417533280
##########                DOCK_Rotatable_Bonds:                   9
##########                         Heavy_Atoms:                  26
##########                    Molecular_Weight:             367.439
##########                DOCK_Rotatable_Bonds:                   9
##########                       Formal_Charge:         -0.00999999
##########                     HBond_Acceptors:                   7
##########                        HBond_Donors:                   2
##########                         Heavy_Atoms:                  26
##########                          Grid_Score:          -30.407579
##########                     Grid_vdw_energy:          -28.465063
##########                      Grid_es_energy:           -1.942516
##########           Internal_energy_repulsive:           15.598383

@<TRIPOS>MOLECULE
ZINC000417533280
 53 54 1 0 0
SMALL
USER_CHARGES


@<TRIPOS>ATOM
      1 C1        -11.0906   -0.8952   52.3745 C.3     1  ZINC000417533280   -0.1600
      2 C2         -9.8184   -0.0473   52.4327 C.3     1  ZINC000417533280   -0.1200
      3 C3         -8.6173   -0.9009   52.0210 C.3     1  ZINC000417533280   -0.1200
      4 C4         -7.3390   -0.0664   52.1251 C.3     1  ZINC000417533280   -0.1300
      5 C5         -7.3103    0.9655   50.9960 C.3     1  ZINC000417533280    0.1200
      6 N6         -6.0376    1.6903   51.0290 N.am    1  ZINC000417533280   -0.7300
      7 C7         -5.8770    2.7321   51.8688 C.2     1  ZINC000417533280    0.5200
      8 O8         -6.7856    3.0687   52.5982 O.2     1  ZINC000417533280   -0.5400
      9 C9         -4.5683    3.4788   51.9015 C.3     1  ZINC000417533280   -0.1100
     10 C10        -3.6797    2.9019   53.0059 C.3     1  ZINC000417533280   -0.1300
     11 C11        -2.3645    3.6856   53.0591 C.3     1  ZINC000417533280    0.1300
     12 N12        -1.7522    3.6730   51.7236 N.am    1  ZINC000417533280   -0.6200
     13 C13        -0.4814    3.2568   51.5548 C.2     1  ZINC000417533280    0.7100
     14 O14         0.0139    3.2511   50.4444 O.2     1  ZINC000417533280   -0.5600
     15 N15         0.2402    2.8469   52.6167 N.am    1  ZINC000417533280   -0.6800
     16 C16         1.5607    2.4144   52.4412 C.ar    1  ZINC000417533280    0.1900
     17 C17         1.8312    1.3179   51.6341 C.ar    1  ZINC000417533280   -0.1100
     18 C18         3.1343    0.8921   51.4610 C.ar    1  ZINC000417533280   -0.1100
     19 C19         4.1707    1.5576   52.0919 C.ar    1  ZINC000417533280    0.0500
     20 F20         5.4440    1.1398   51.9210 F       1  ZINC000417533280   -0.1300
     21 C21         3.9036    2.6536   52.8991 C.ar    1  ZINC000417533280    0.0900
     22 F22         4.9165    3.3023   53.5142 F       1  ZINC000417533280   -0.1200
     23 C23         2.6011    3.0854   53.0699 C.ar    1  ZINC000417533280   -0.1300
     24 C24         2.3100    4.2763   53.9463 C.3     1  ZINC000417533280   -0.1200
     25 C25        -2.5515    4.1223   50.5756 C.3     1  ZINC000417533280    0.1100
     26 C26        -3.8647    3.3337   50.5503 C.3     1  ZINC000417533280   -0.1200
     27 H27       -11.2366   -1.2619   51.3584 H       1  ZINC000417533280    0.0500
     28 H28       -10.9952   -1.7408   53.0556 H       1  ZINC000417533280    0.0500
     29 H29       -11.9463   -0.2872   52.6678 H       1  ZINC000417533280    0.0500
     30 H30        -9.9138    0.7983   51.7516 H       1  ZINC000417533280    0.0600
     31 H31        -9.6724    0.3194   53.4488 H       1  ZINC000417533280    0.0600
     32 H32        -8.5420   -1.7647   52.6814 H       1  ZINC000417533280    0.0700
     33 H33        -8.7474   -1.2394   50.9931 H       1  ZINC000417533280    0.0700
     34 H34        -7.3172    0.4464   53.0867 H       1  ZINC000417533280    0.0700
     35 H35        -6.4707   -0.7201   52.0422 H       1  ZINC000417533280    0.0700
     36 H36        -7.4145    0.4579   50.0370 H       1  ZINC000417533280    0.0700
     37 H37        -8.1326    1.6692   51.1259 H       1  ZINC000417533280    0.0700
     38 H38        -5.3104    1.4203   50.4465 H       1  ZINC000417533280    0.4000
     39 H39        -4.7569    4.5335   52.1013 H       1  ZINC000417533280    0.1000
     40 H40        -4.1914    2.9844   53.9647 H       1  ZINC000417533280    0.0800
     41 H41        -3.4702    1.8535   52.7939 H       1  ZINC000417533280    0.0800
     42 H42        -2.5640    4.7142   53.3600 H       1  ZINC000417533280    0.0700
     43 H43        -1.6891    3.2178   53.7753 H       1  ZINC000417533280    0.1000
     44 H44        -0.1550    2.8516   53.5025 H       1  ZINC000417533280    0.4100
     45 H45         1.0231    0.7975   51.1415 H       1  ZINC000417533280    0.1700
     46 H46         3.3441    0.0388   50.8332 H       1  ZINC000417533280    0.1500
     47 H47         2.3396    5.1854   53.3456 H       1  ZINC000417533280    0.0800
     48 H48         1.3211    4.1669   54.3914 H       1  ZINC000417533280    0.0700
     49 H49         3.0590    4.3381   54.7358 H       1  ZINC000417533280    0.0800
     50 H50        -2.7662    5.1864   50.6739 H       1  ZINC000417533280    0.0800
     51 H51        -1.9993    3.9425   49.6531 H       1  ZINC000417533280    0.0800
     52 H52        -3.6533    2.2811   50.3613 H       1  ZINC000417533280    0.0800
     53 H53        -4.5078    3.7234   49.7614 H       1  ZINC000417533280    0.0900
@<TRIPOS>BOND
     1     1     2    1
     2     1    27    1
     3     1    28    1
     4     1    29    1
     5     2     3    1
     6     2    30    1
     7     2    31    1
     8     3     4    1
     9     3    32    1
    10     3    33    1
    11     4     5    1
    12     4    34    1
    13     4    35    1
    14     5     6    1
    15     5    36    1
    16     5    37    1
    17     6     7   am
    18     6    38    1
    19     7     8    2
    20     7     9    1
    21     9    26    1
    22     9    10    1
    23     9    39    1
    24    10    11    1
    25    10    40    1
    26    10    41    1
    27    11    12    1
    28    11    42    1
    29    11    43    1
    30    12    13   am
    31    12    25    1
    32    13    14    2
    33    13    15   am
    34    15    16    1
    35    15    44    1
    36    16    23   ar
    37    16    17   ar
    38    17    18   ar
    39    17    45    1
    40    18    19   ar
    41    18    46    1
    42    19    20    1
    43    19    21   ar
    44    21    22    1
    45    21    23   ar
    46    23    24    1
    47    24    47    1
    48    24    48    1
    49    24    49    1
    50    25    26    1
    51    25    50    1
    52    25    51    1
    53    26    52    1
    54    26    53    1
@<TRIPOS>SUBSTRUCTURE
     1 ZINC000417533280        1 TEMP              0 ****  ****    0 ROOT


##########                                Name:    ZINC000460163972
##########                DOCK_Rotatable_Bonds:                   7
##########                         Heavy_Atoms:                  28
##########                    Molecular_Weight:             408.469
##########                DOCK_Rotatable_Bonds:                   7
##########                       Formal_Charge:          -0.0100001
##########                     HBond_Acceptors:                   8
##########                        HBond_Donors:                   2
##########                         Heavy_Atoms:                  28
##########                          Grid_Score:          -30.401167
##########                     Grid_vdw_energy:          -29.761410
##########                      Grid_es_energy:           -0.639757
##########           Internal_energy_repulsive:           47.257477

@<TRIPOS>MOLECULE
ZINC000460163972
 50 52 1 0 0
SMALL
USER_CHARGES


@<TRIPOS>ATOM
      1 C1          0.4533    3.0977   52.4664 C.3     1  ZINC000460163972   -0.1400
      2 C2         -0.9964    2.9864   52.0702 C.ar    1  ZINC000460163972    0.0100
      3 C3         -1.3562    2.2171   50.9791 C.ar    1  ZINC000460163972   -0.1300
      4 C4         -2.6842    2.1130   50.6133 C.ar    1  ZINC000460163972   -0.0600
      5 C5         -3.6581    2.7817   51.3428 C.ar    1  ZINC000460163972    0.1100
      6 N6         -5.0042    2.6780   50.9752 N.am    1  ZINC000460163972   -0.6700
      7 C7         -5.6604    1.5125   51.1415 C.2     1  ZINC000460163972    0.5200
      8 O8         -5.0840    0.5535   51.6098 O.2     1  ZINC000460163972   -0.5100
      9 C9         -7.1101    1.4008   50.7456 C.3     1  ZINC000460163972   -0.0700
     10 H10        -7.1791    1.1114   49.6970 H       1  ZINC000460163972    0.1200
     11 C11        -7.7955    0.3428   51.6127 C.3     1  ZINC000460163972   -0.1500
     12 C12        -7.7893    2.7311   50.9453 C.ar    1  ZINC000460163972   -0.0600
     13 C13        -8.0844    3.5262   49.8540 C.ar    1  ZINC000460163972   -0.0700
     14 C14        -8.7074    4.7472   50.0347 C.ar    1  ZINC000460163972   -0.1200
     15 C15        -9.0366    5.1741   51.3091 C.ar    1  ZINC000460163972    0.0700
     16 F16        -9.6458    6.3668   51.4865 F       1  ZINC000460163972   -0.1300
     17 C17        -8.7409    4.3759   52.4041 C.ar    1  ZINC000460163972    0.0700
     18 F18        -9.0613    4.7905   53.6494 F       1  ZINC000460163972   -0.1300
     19 C19        -8.1217    3.1524   52.2195 C.ar    1  ZINC000460163972   -0.1200
     20 C20        -3.2934    3.5534   52.4386 C.ar    1  ZINC000460163972    0.0000
     21 C21        -4.3473    4.2805   53.2334 C.3     1  ZINC000460163972   -0.1500
     22 C22        -1.9647    3.6496   52.8019 C.ar    1  ZINC000460163972   -0.6700
     23 S23        -1.5010    4.6277   54.1922 S.o2    1  ZINC000460163972    2.7000
     24 O24        -0.3088    4.0520   54.7083 O.2     1  ZINC000460163972   -0.9500
     25 O25        -1.5930    5.9837   53.7774 O.2     1  ZINC000460163972   -0.9500
     26 N26        -2.6638    4.4136   55.3518 N.am    1  ZINC000460163972   -1.0900
     27 C27        -2.9263    3.0756   55.8875 C.3     1  ZINC000460163972    0.0800
     28 C28        -2.4825    2.7901   57.3237 C.3     1  ZINC000460163972   -0.1800
     29 C29        -3.9690    2.9523   57.0003 C.3     1  ZINC000460163972   -0.1900
     30 H30         0.6740    2.3681   53.2455 H       1  ZINC000460163972    0.1000
     31 H31         1.0832    2.9041   51.5981 H       1  ZINC000460163972    0.0800
     32 H32         0.6512    4.1015   52.8422 H       1  ZINC000460163972    0.0700
     33 H33        -0.5982    1.6972   50.4121 H       1  ZINC000460163972    0.1400
     34 H34        -2.9645    1.5124   49.7606 H       1  ZINC000460163972    0.1600
     35 H35        -5.4652    3.4448   50.6007 H       1  ZINC000460163972    0.4100
     36 H36        -8.8440    0.2620   51.3263 H       1  ZINC000460163972    0.0800
     37 H37        -7.3041   -0.6194   51.4682 H       1  ZINC000460163972    0.0700
     38 H38        -7.7265    0.6321   52.6613 H       1  ZINC000460163972    0.0700
     39 H39        -7.8277    3.1937   48.8591 H       1  ZINC000460163972    0.1400
     40 H40        -8.9368    5.3679   49.1812 H       1  ZINC000460163972    0.1500
     41 H41        -7.8911    2.5298   53.0714 H       1  ZINC000460163972    0.1500
     42 H42        -4.6189    3.6861   54.1058 H       1  ZINC000460163972    0.1000
     43 H43        -3.9566    5.2449   53.5581 H       1  ZINC000460163972    0.1000
     44 H44        -5.2287    4.4364   52.6112 H       1  ZINC000460163972    0.0700
     45 H45        -3.1710    5.1741   55.6762 H       1  ZINC000460163972    0.4200
     46 H46        -2.8590    2.2596   55.1681 H       1  ZINC000460163972    0.1300
     47 H47        -2.1231    1.7862   57.5493 H       1  ZINC000460163972    0.1100
     48 H48        -1.9952    3.5979   57.8699 H       1  ZINC000460163972    0.1000
     49 H49        -4.4598    3.8667   57.3337 H       1  ZINC000460163972    0.1000
     50 H50        -4.5877    2.0549   57.0131 H       1  ZINC000460163972    0.1000
@<TRIPOS>BOND
     1     1     2    1
     2     1    30    1
     3     1    31    1
     4     1    32    1
     5     2    22   ar
     6     2     3   ar
     7     3     4   ar
     8     3    33    1
     9     4     5   ar
    10     4    34    1
    11     5     6    1
    12     5    20   ar
    13     6     7   am
    14     6    35    1
    15     7     8    2
    16     7     9    1
    17     9    10    1
    18     9    11    1
    19     9    12    1
    20    11    36    1
    21    11    37    1
    22    11    38    1
    23    12    19   ar
    24    12    13   ar
    25    13    14   ar
    26    13    39    1
    27    14    15   ar
    28    14    40    1
    29    15    16    1
    30    15    17   ar
    31    17    18    1
    32    17    19   ar
    33    19    41    1
    34    20    21    1
    35    20    22   ar
    36    21    42    1
    37    21    43    1
    38    21    44    1
    39    22    23    1
    40    23    24    2
    41    23    25    2
    42    23    26   am
    43    26    27    1
    44    26    45    1
    45    27    29    1
    46    27    28    1
    47    27    46    1
    48    28    29    1
    49    28    47    1
    50    28    48    1
    51    29    49    1
    52    29    50    1
@<TRIPOS>SUBSTRUCTURE
     1 ZINC000460163972        1 TEMP              0 ****  ****    0 ROOT


##########                                Name:    ZINC001162683355
##########                DOCK_Rotatable_Bonds:                   5
##########                         Heavy_Atoms:                  25
##########                    Molecular_Weight:             336.437
##########                DOCK_Rotatable_Bonds:                   5
##########                       Formal_Charge:          -0.0100002
##########                     HBond_Acceptors:                   5
##########                        HBond_Donors:                   1
##########                         Heavy_Atoms:                  25
##########                          Grid_Score:          -30.399485
##########                     Grid_vdw_energy:          -29.189798
##########                      Grid_es_energy:           -1.209686
##########           Internal_energy_repulsive:            9.068669

@<TRIPOS>MOLECULE
ZINC001162683355
 49 52 1 0 0
SMALL
USER_CHARGES


@<TRIPOS>ATOM
      1 C1         -3.6650    3.3851   52.0208 C.3     1  ZINC001162683355    0.0200
      2 N2         -4.8291    2.9478   51.2387 N.3     1  ZINC001162683355   -0.5400
      3 C3         -5.8372    4.0145   51.1531 C.3     1  ZINC001162683355    0.0100
      4 C4         -7.0030    3.5388   50.2821 C.3     1  ZINC001162683355    0.0600
      5 O5         -7.5382    2.3306   50.8291 O.3     1  ZINC001162683355   -0.3800
      6 C6         -6.5835    1.2702   50.9263 C.3     1  ZINC001162683355    0.0800
      7 H7         -6.2167    1.0183   49.9312 H       1  ZINC001162683355    0.0700
      8 C8         -7.2464    0.0417   51.5525 C.3     1  ZINC001162683355    0.1500
      9 N9         -8.0613    0.4565   52.6971 N.pl3   1  ZINC001162683355   -0.7300
     10 C10        -9.3070   -0.1234   52.9103 C.ar    1  ZINC001162683355    0.4300
     11 C11       -10.0484    0.2149   54.0448 C.ar    1  ZINC001162683355   -0.0100
     12 C12       -11.3050   -0.3903   54.2294 C.ar    1  ZINC001162683355   -0.0400
     13 C13       -11.7592   -1.3048   53.2697 C.ar    1  ZINC001162683355   -0.1800
     14 C14       -10.9676   -1.5757   52.1917 C.ar    1  ZINC001162683355    0.1000
     15 N15        -9.7878   -0.9941   52.0383 N.ar    1  ZINC001162683355   -0.5400
     16 C16       -11.8354    0.1487   55.4781 C.2     1  ZINC001162683355   -0.2200
     17 C17       -10.9148    1.0030   55.9594 C.2     1  ZINC001162683355    0.0800
     18 N18        -9.8442    1.0583   55.1130 N.pl3   1  ZINC001162683355   -0.4600
     19 C19        -8.6533    1.8872   55.3153 C.3     1  ZINC001162683355    0.1500
     20 C20        -8.6601    2.4428   56.7161 C.ar    1  ZINC001162683355   -0.1100
     21 C21        -8.8038    3.8025   56.9195 C.ar    1  ZINC001162683355   -0.1000
     22 C22        -8.8145    4.3117   58.2047 C.ar    1  ZINC001162683355   -0.1200
     23 C23        -8.6721    3.4623   59.2859 C.ar    1  ZINC001162683355   -0.1100
     24 C24        -8.5232    2.1032   59.0822 C.ar    1  ZINC001162683355   -0.1200
     25 C25        -8.5170    1.5935   57.7973 C.ar    1  ZINC001162683355   -0.1000
     26 C26        -5.4134    1.7229   51.8038 C.3     1  ZINC001162683355    0.0300
     27 H27        -3.9705    3.5801   53.0488 H       1  ZINC001162683355    0.0300
     28 H28        -2.9053    2.6037   52.0095 H       1  ZINC001162683355    0.0700
     29 H29        -3.2556    4.2963   51.5844 H       1  ZINC001162683355    0.0700
     30 H30        -5.3897    4.9033   50.7086 H       1  ZINC001162683355    0.0900
     31 H31        -6.2025    4.2511   52.1525 H       1  ZINC001162683355    0.0500
     32 H32        -6.6478    3.3534   49.2684 H       1  ZINC001162683355    0.0600
     33 H33        -7.7789    4.3041   50.2618 H       1  ZINC001162683355    0.1000
     34 H34        -6.4777   -0.6549   51.8873 H       1  ZINC001162683355    0.0700
     35 H35        -7.8809   -0.4458   50.8123 H       1  ZINC001162683355    0.0800
     36 H36        -7.7318    1.1359   53.3061 H       1  ZINC001162683355    0.4000
     37 H37       -12.7192   -1.7867   53.3811 H       1  ZINC001162683355    0.1300
     38 H38       -11.3108   -2.2791   51.4475 H       1  ZINC001162683355    0.1500
     39 H39       -12.7846   -0.0957   55.9317 H       1  ZINC001162683355    0.1500
     40 H40       -11.0090    1.5638   56.8775 H       1  ZINC001162683355    0.1700
     41 H41        -8.6562    2.7084   54.5986 H       1  ZINC001162683355    0.0900
     42 H42        -7.7595    1.2806   55.1693 H       1  ZINC001162683355    0.0900
     43 H43        -8.9112    4.4667   56.0747 H       1  ZINC001162683355    0.1200
     44 H44        -8.9312    5.3736   58.3639 H       1  ZINC001162683355    0.1300
     45 H45        -8.6778    3.8605   60.2898 H       1  ZINC001162683355    0.1300
     46 H46        -8.4121    1.4396   59.9270 H       1  ZINC001162683355    0.1300
     47 H47        -8.4005    0.5316   57.6381 H       1  ZINC001162683355    0.1200
     48 H48        -5.7719    1.9229   52.8136 H       1  ZINC001162683355    0.0500
     49 H49        -4.6566    0.9390   51.8341 H       1  ZINC001162683355    0.0900
@<TRIPOS>BOND
     1     1     2    1
     2     1    27    1
     3     1    28    1
     4     1    29    1
     5     2    26    1
     6     2     3    1
     7     3     4    1
     8     3    30    1
     9     3    31    1
    10     4     5    1
    11     4    32    1
    12     4    33    1
    13     5     6    1
    14     6     7    1
    15     6     8    1
    16     6    26    1
    17     8     9    1
    18     8    34    1
    19     8    35    1
    20     9    10    1
    21     9    36    1
    22    10    15   ar
    23    10    11   ar
    24    11    18    1
    25    11    12   ar
    26    12    13   ar
    27    12    16    1
    28    13    14   ar
    29    13    37    1
    30    14    15   ar
    31    14    38    1
    32    16    17    2
    33    16    39    1
    34    17    18    1
    35    17    40    1
    36    18    19    1
    37    19    20    1
    38    19    41    1
    39    19    42    1
    40    20    25   ar
    41    20    21   ar
    42    21    22   ar
    43    21    43    1
    44    22    23   ar
    45    22    44    1
    46    23    24   ar
    47    23    45    1
    48    24    25   ar
    49    24    46    1
    50    25    47    1
    51    26    48    1
    52    26    49    1
@<TRIPOS>SUBSTRUCTURE
     1 ZINC001162683355        1 TEMP              0 ****  ****    0 ROOT


##########                                Name:    ZINC000944933040
##########                DOCK_Rotatable_Bonds:                   4
##########                         Heavy_Atoms:                  26
##########                    Molecular_Weight:             354.449
##########                DOCK_Rotatable_Bonds:                   4
##########                       Formal_Charge:           0.0100002
##########                     HBond_Acceptors:                   5
##########                        HBond_Donors:                   0
##########                         Heavy_Atoms:                  26
##########                          Grid_Score:          -30.370583
##########                     Grid_vdw_energy:          -28.516861
##########                      Grid_es_energy:           -1.853721
##########           Internal_energy_repulsive:            8.091192

@<TRIPOS>MOLECULE
ZINC000944933040
 52 57 1 0 0
SMALL
USER_CHARGES


@<TRIPOS>ATOM
      1 O1        -10.7812   -3.7577   56.8540 O.2     1  ZINC000944933040   -0.5200
      2 C2        -11.1801   -2.6146   56.7396 C.2     1  ZINC000944933040    0.6400
      3 C3        -11.5063   -2.0961   55.4452 C.1     1  ZINC000944933040   -0.2200
      4 C4        -11.7737   -1.6712   54.3840 C.1     1  ZINC000944933040   -0.0400
      5 C5        -12.1090   -1.1383   53.0535 C.3     1  ZINC000944933040   -0.0700
      6 C6        -11.1231   -0.1568   52.4167 C.3     1  ZINC000944933040   -0.1600
      7 C7        -11.2405   -1.5829   51.8750 C.3     1  ZINC000944933040   -0.1600
      8 N8        -11.3205   -1.8374   57.8318 N.am    1  ZINC000944933040   -0.6000
      9 C9        -11.8131   -0.4593   57.7069 C.3     1  ZINC000944933040    0.1100
     10 C10       -10.7919    0.4893   58.3461 C.3     1  ZINC000944933040   -0.1200
     11 C11       -10.4838    0.0111   59.7629 C.3     1  ZINC000944933040   -0.0900
     12 C12        -9.6440    1.0041   60.5782 C.3     1  ZINC000944933040    0.1200
     13 N13       -10.5507    0.6896   61.7005 N.am    1  ZINC000944933040   -0.6400
     14 C14       -10.4472    0.7498   63.0429 C.2     1  ZINC000944933040    0.5500
     15 O15       -11.3828    0.4161   63.7388 O.2     1  ZINC000944933040   -0.5300
     16 C16        -9.1690    1.2318   63.6794 C.3     1  ZINC000944933040   -0.1300
     17 H17        -8.6394    1.9116   63.0119 H       1  ZINC000944933040    0.1100
     18 C18        -8.2664    0.0349   64.0732 C.3     1  ZINC000944933040   -0.1300
     19 C19        -8.1534    0.1824   65.6203 C.3     1  ZINC000944933040    0.0900
     20 H20        -7.8868   -0.7272   66.1583 H       1  ZINC000944933040    0.1300
     21 O21        -9.4620    0.7541   65.9490 O.3     1  ZINC000944933040   -0.3600
     22 C22        -9.4583    1.9167   65.0488 C.3     1  ZINC000944933040    0.1200
     23 H23       -10.3450    2.5492   65.0904 H       1  ZINC000944933040    0.1400
     24 C24        -8.1231    2.6103   65.4539 C.3     1  ZINC000944933040   -0.2000
     25 H25        -7.7735    3.4473   64.8496 H       1  ZINC000944933040    0.1200
     26 C26        -7.6764    2.4727   66.9108 C.3     1  ZINC000944933040   -0.1300
     27 C27        -7.2048    1.3970   65.8501 C.3     1  ZINC000944933040   -0.2000
     28 H28        -6.1526    1.3217   65.5757 H       1  ZINC000944933040    0.1300
     29 C29       -11.6165    0.2835   60.7626 C.3     1  ZINC000944933040    0.1100
     30 C30        -9.9568   -1.4209   59.8128 C.3     1  ZINC000944933040   -0.1100
     31 C31       -10.9889   -2.3586   59.1644 C.3     1  ZINC000944933040    0.1100
     32 H32       -13.1707   -0.9794   52.8646 H       1  ZINC000944933040    0.1400
     33 H33       -11.5362    0.6481   51.8087 H       1  ZINC000944933040    0.1100
     34 H34       -10.2262    0.0942   52.9829 H       1  ZINC000944933040    0.1000
     35 H35       -10.4209   -2.2700   52.0849 H       1  ZINC000944933040    0.1000
     36 H36       -11.7308   -1.7161   50.9106 H       1  ZINC000944933040    0.1100
     37 H37       -11.9349   -0.2088   56.6532 H       1  ZINC000944933040    0.0900
     38 H38       -12.7701   -0.3654   58.2200 H       1  ZINC000944933040    0.0800
     39 H39        -9.8761    0.4908   57.7549 H       1  ZINC000944933040    0.0800
     40 H40       -11.2044    1.4974   58.3834 H       1  ZINC000944933040    0.0900
     41 H41        -8.6157    0.6810   60.7399 H       1  ZINC000944933040    0.0800
     42 H42        -9.7182    2.0337   60.2282 H       1  ZINC000944933040    0.0900
     43 H43        -8.7411   -0.9101   63.8091 H       1  ZINC000944933040    0.0800
     44 H44        -7.2860    0.1200   63.6046 H       1  ZINC000944933040    0.0900
     45 H45        -6.9190    3.1688   67.2713 H       1  ZINC000944933040    0.1000
     46 H46        -8.4309    2.1815   67.6416 H       1  ZINC000944933040    0.1000
     47 H47       -12.2767    1.0991   60.4675 H       1  ZINC000944933040    0.0900
     48 H48       -12.1557   -0.6121   61.0708 H       1  ZINC000944933040    0.0800
     49 H49        -9.0140   -1.4814   59.2692 H       1  ZINC000944933040    0.0800
     50 H50        -9.7999   -1.7155   60.8504 H       1  ZINC000944933040    0.0800
     51 H51       -11.8866   -2.3966   59.7816 H       1  ZINC000944933040    0.0700
     52 H52       -10.5654   -3.3585   59.0696 H       1  ZINC000944933040    0.1000
@<TRIPOS>BOND
     1     1     2    2
     2     2     3    1
     3     2     8   am
     4     3     4    3
     5     4     5    1
     6     5     7    1
     7     5     6    1
     8     5    32    1
     9     6     7    1
    10     6    33    1
    11     6    34    1
    12     7    35    1
    13     7    36    1
    14     8    31    1
    15     8     9    1
    16     9    10    1
    17     9    37    1
    18     9    38    1
    19    10    11    1
    20    10    39    1
    21    10    40    1
    22    11    29    1
    23    11    12    1
    24    11    30    1
    25    12    13    1
    26    12    41    1
    27    12    42    1
    28    13    14   am
    29    13    29    1
    30    14    15    2
    31    14    16    1
    32    16    17    1
    33    16    22    1
    34    16    18    1
    35    18    19    1
    36    18    43    1
    37    18    44    1
    38    19    20    1
    39    19    27    1
    40    19    21    1
    41    21    22    1
    42    22    23    1
    43    22    24    1
    44    24    25    1
    45    24    27    1
    46    24    26    1
    47    26    27    1
    48    26    45    1
    49    26    46    1
    50    27    28    1
    51    29    47    1
    52    29    48    1
    53    30    31    1
    54    30    49    1
    55    30    50    1
    56    31    51    1
    57    31    52    1
@<TRIPOS>SUBSTRUCTURE
     1 ZINC000944933040        1 TEMP              0 ****  ****    0 ROOT


##########                                Name:    ZINC001400108193
##########                DOCK_Rotatable_Bonds:                   9
##########                         Heavy_Atoms:                  25
##########                    Molecular_Weight:              344.41
##########                DOCK_Rotatable_Bonds:                   9
##########                       Formal_Charge:           0.0200001
##########                     HBond_Acceptors:                   6
##########                        HBond_Donors:                   2
##########                         Heavy_Atoms:                  25
##########                          Grid_Score:          -30.344738
##########                     Grid_vdw_energy:          -29.962797
##########                      Grid_es_energy:           -0.381941
##########           Internal_energy_repulsive:            8.120658

@<TRIPOS>MOLECULE
ZINC001400108193
 49 50 1 0 0
SMALL
USER_CHARGES


@<TRIPOS>ATOM
      1 C1        -12.1976   -0.7760   52.0842 C.3     1  ZINC001400108193   -0.0800
      2 C2        -12.1351   -1.7118   53.2639 C.2     1  ZINC001400108193   -0.0100
      3 C3        -13.0850   -1.8451   54.2022 C.2     1  ZINC001400108193   -0.1600
      4 C4        -12.5871   -2.8626   55.1394 C.2     1  ZINC001400108193   -0.2300
      5 C5        -13.2634   -3.3682   56.3473 C.2     1  ZINC001400108193    0.5900
      6 O6        -12.7678   -4.2764   56.9865 O.2     1  ZINC001400108193   -0.5300
      7 N7        -14.4309   -2.8240   56.7436 N.am    1  ZINC001400108193   -0.7300
      8 C8        -15.1040   -3.3277   57.9434 C.3     1  ZINC001400108193    0.1100
      9 C9        -14.8096   -2.3975   59.1219 C.3     1  ZINC001400108193    0.1300
     10 H10       -15.0511   -1.3716   58.8441 H       1  ZINC001400108193    0.1000
     11 C11       -15.6587   -2.8136   60.3247 C.3     1  ZINC001400108193   -0.1600
     12 N12       -13.3899   -2.4872   59.4720 N.am    1  ZINC001400108193   -0.7300
     13 C13       -12.7239   -1.3864   59.8733 C.2     1  ZINC001400108193    0.5200
     14 O14       -13.3003   -0.3217   59.9460 O.2     1  ZINC001400108193   -0.5100
     15 C15       -11.2630   -1.4783   60.2317 C.3     1  ZINC001400108193    0.0700
     16 H16       -11.1448   -2.1018   61.1180 H       1  ZINC001400108193    0.1000
     17 C17       -10.4898   -2.0976   59.0657 C.3     1  ZINC001400108193   -0.1800
     18 O18       -10.7547   -0.1698   60.4988 O.3     1  ZINC001400108193   -0.2800
     19 C19       -10.2259    0.0470   61.7318 C.ar    1  ZINC001400108193    0.1200
     20 C20        -8.8662   -0.1277   61.9452 C.ar    1  ZINC001400108193   -0.2100
     21 C21        -8.3312    0.0937   63.1993 C.ar    1  ZINC001400108193   -0.0800
     22 C22        -9.1502    0.4841   64.2427 C.ar    1  ZINC001400108193   -0.1200
     23 C23        -8.5646    0.7190   65.6113 C.3     1  ZINC001400108193   -0.1100
     24 C24       -10.5047    0.6641   64.0313 C.ar    1  ZINC001400108193   -0.0800
     25 C25       -11.0447    0.4440   62.7789 C.ar    1  ZINC001400108193   -0.1400
     26 C26       -11.3657   -3.2365   54.6606 C.2     1  ZINC001400108193    0.0200
     27 O27       -11.1207   -2.5447   53.5436 O.3     1  ZINC001400108193   -0.1700
     28 H28       -11.7630    0.1850   52.3594 H       1  ZINC001400108193    0.0900
     29 H29       -11.6379   -1.2028   51.2519 H       1  ZINC001400108193    0.0800
     30 H30       -13.2368   -0.6335   51.7880 H       1  ZINC001400108193    0.0900
     31 H31       -14.0236   -1.3138   54.2574 H       1  ZINC001400108193    0.1600
     32 H32       -14.8256   -2.0987   56.2344 H       1  ZINC001400108193    0.4000
     33 H33       -14.7393   -4.3293   58.1712 H       1  ZINC001400108193    0.0800
     34 H34       -16.1792   -3.3637   57.7687 H       1  ZINC001400108193    0.0900
     35 H35       -15.4490   -2.1508   61.1642 H       1  ZINC001400108193    0.0700
     36 H36       -16.7151   -2.7468   60.0641 H       1  ZINC001400108193    0.0700
     37 H37       -15.4172   -3.8395   60.6025 H       1  ZINC001400108193    0.0600
     38 H38       -12.9292   -3.3389   59.4150 H       1  ZINC001400108193    0.4000
     39 H39       -10.8774   -3.0957   58.8619 H       1  ZINC001400108193    0.0800
     40 H40       -10.6079   -1.4740   58.1795 H       1  ZINC001400108193    0.0800
     41 H41        -9.4331   -2.1641   59.3250 H       1  ZINC001400108193    0.0800
     42 H42        -8.2269   -0.4371   61.1316 H       1  ZINC001400108193    0.1300
     43 H43        -7.2728   -0.0425   63.3661 H       1  ZINC001400108193    0.1300
     44 H44        -8.2589    1.7613   65.7017 H       1  ZINC001400108193    0.0700
     45 H45        -9.3134    0.4929   66.3705 H       1  ZINC001400108193    0.0700
     46 H46        -7.6982    0.0727   65.7516 H       1  ZINC001400108193    0.0700
     47 H47       -11.1417    0.9730   64.8468 H       1  ZINC001400108193    0.1300
     48 H48       -12.1034    0.5810   62.6153 H       1  ZINC001400108193    0.1300
     49 H49       -10.7094   -3.9691   55.1068 H       1  ZINC001400108193    0.2100
@<TRIPOS>BOND
     1     1     2    1
     2     1    28    1
     3     1    29    1
     4     1    30    1
     5     2    27    1
     6     2     3    2
     7     3     4    1
     8     3    31    1
     9     4     5    1
    10     4    26    2
    11     5     6    2
    12     5     7   am
    13     7     8    1
    14     7    32    1
    15     8     9    1
    16     8    33    1
    17     8    34    1
    18     9    10    1
    19     9    11    1
    20     9    12    1
    21    11    35    1
    22    11    36    1
    23    11    37    1
    24    12    13   am
    25    12    38    1
    26    13    14    2
    27    13    15    1
    28    15    16    1
    29    15    17    1
    30    15    18    1
    31    17    39    1
    32    17    40    1
    33    17    41    1
    34    18    19    1
    35    19    25   ar
    36    19    20   ar
    37    20    21   ar
    38    20    42    1
    39    21    22   ar
    40    21    43    1
    41    22    23    1
    42    22    24   ar
    43    23    44    1
    44    23    45    1
    45    23    46    1
    46    24    25   ar
    47    24    47    1
    48    25    48    1
    49    26    27    1
    50    26    49    1
@<TRIPOS>SUBSTRUCTURE
     1 ZINC001400108193        1 TEMP              0 ****  ****    0 ROOT


##########                                Name:    ZINC000443394081
##########                DOCK_Rotatable_Bonds:                   8
##########                         Heavy_Atoms:                  27
##########                    Molecular_Weight:             389.878
##########                DOCK_Rotatable_Bonds:                   8
##########                       Formal_Charge:          -0.0300003
##########                     HBond_Acceptors:                   6
##########                        HBond_Donors:                   1
##########                         Heavy_Atoms:                  27
##########                          Grid_Score:          -30.325230
##########                     Grid_vdw_energy:          -29.651031
##########                      Grid_es_energy:           -0.674197
##########           Internal_energy_repulsive:           29.054508

@<TRIPOS>MOLECULE
ZINC000443394081
 51 53 1 0 0
SMALL
USER_CHARGES


@<TRIPOS>ATOM
      1 C1         -9.4582    4.0944   51.9823 C.3     1  ZINC000443394081    0.0200
      2 O2         -9.3685    2.8288   51.3248 O.3     1  ZINC000443394081   -0.3000
      3 C3         -8.1647    2.1974   51.3626 C.ar    1  ZINC000443394081    0.1000
      4 C4         -7.0216    2.8658   50.9705 C.ar    1  ZINC000443394081   -0.1200
      5 C5         -5.7858    2.2140   51.0111 C.ar    1  ZINC000443394081   -0.1300
      6 C6         -4.5610    2.9240   50.5936 C.2     1  ZINC000443394081    0.5700
      7 O7         -4.2252    2.9214   49.4251 O.2     1  ZINC000443394081   -0.4900
      8 N8         -3.8149    3.5752   51.5076 N.am    1  ZINC000443394081   -0.6100
      9 C9         -4.1042    3.6592   52.9508 C.3     1  ZINC000443394081    0.0900
     10 C10        -2.7312    3.9291   53.6155 C.3     1  ZINC000443394081   -0.1300
     11 C11        -2.0621    4.8686   52.5779 C.3     1  ZINC000443394081   -0.1000
     12 H12        -2.3878    5.8986   52.7237 H       1  ZINC000443394081    0.0900
     13 C13        -0.5377    4.7683   52.6606 C.3     1  ZINC000443394081   -0.1500
     14 C14        -2.5740    4.3141   51.2319 C.3     1  ZINC000443394081    0.1400
     15 H15        -2.7826    5.1364   50.5474 H       1  ZINC000443394081    0.0800
     16 C16        -1.5261    3.3817   50.6209 C.3     1  ZINC000443394081    0.0600
     17 O17        -1.4671    2.1707   51.3772 O.3     1  ZINC000443394081   -0.5400
     18 C18        -5.7125    0.8895   51.4480 C.ar    1  ZINC000443394081   -0.1000
     19 C19        -6.8571    0.2277   51.8375 C.ar    1  ZINC000443394081   -0.1800
     20 C20        -8.0835    0.8767   51.8027 C.ar    1  ZINC000443394081    0.1300
     21 O21        -9.2085    0.2205   52.1875 O.3     1  ZINC000443394081   -0.3000
     22 C22        -9.7096    0.5041   53.4953 C.3     1  ZINC000443394081    0.1000
     23 C23       -10.7811   -0.4944   53.8501 C.ar    1  ZINC000443394081   -0.0800
     24 C24       -10.7698   -1.7527   53.2788 C.ar    1  ZINC000443394081   -0.0800
     25 C25       -11.7528   -2.6689   53.6041 C.ar    1  ZINC000443394081   -0.1100
     26 C26       -12.7478   -2.3268   54.5005 C.ar    1  ZINC000443394081   -0.1000
     27 C27       -12.7602   -1.0684   55.0726 C.ar    1  ZINC000443394081   -0.1100
     28 C28       -11.7734   -0.1535   54.7523 C.ar    1  ZINC000443394081   -0.0300
     29 Cl29      -11.7884    1.4269   55.4703 Cl      1  ZINC000443394081   -0.0700
     30 H30       -10.4692    4.4880   51.8764 H       1  ZINC000443394081    0.1000
     31 H31        -9.2250    3.9717   53.0399 H       1  ZINC000443394081    0.0600
     32 H32        -8.7489    4.7889   51.5320 H       1  ZINC000443394081    0.0600
     33 H33        -7.0824    3.8899   50.6330 H       1  ZINC000443394081    0.1500
     34 H34        -4.7915    4.4808   53.1527 H       1  ZINC000443394081    0.0700
     35 H35        -4.5209    2.7181   53.3096 H       1  ZINC000443394081    0.0800
     36 H36        -2.8538    4.4311   54.5752 H       1  ZINC000443394081    0.0900
     37 H37        -2.1639    3.0054   53.7291 H       1  ZINC000443394081    0.0800
     38 H38        -0.2312    3.7376   52.4826 H       1  ZINC000443394081    0.0600
     39 H39        -0.0894    5.4159   51.9070 H       1  ZINC000443394081    0.0600
     40 H40        -0.2062    5.0800   53.6511 H       1  ZINC000443394081    0.0600
     41 H41        -1.7994    3.1537   49.5906 H       1  ZINC000443394081    0.0600
     42 H42        -0.5514    3.8692   50.6389 H       1  ZINC000443394081    0.0400
     43 H43        -1.2198    2.2972   52.3035 H       1  ZINC000443394081    0.3700
     44 H44        -4.7589    0.3836   51.4803 H       1  ZINC000443394081    0.1400
     45 H45        -6.7990   -0.7966   52.1748 H       1  ZINC000443394081    0.1400
     46 H46        -8.8966    0.4369   54.2184 H       1  ZINC000443394081    0.0800
     47 H47       -10.1297    1.5097   53.5133 H       1  ZINC000443394081    0.0800
     48 H48        -9.9930   -2.0203   52.5778 H       1  ZINC000443394081    0.1400
     49 H49       -11.7435   -3.6521   53.1574 H       1  ZINC000443394081    0.1300
     50 H50       -13.5158   -3.0426   54.7537 H       1  ZINC000443394081    0.1300
     51 H51       -13.5377   -0.8012   55.7731 H       1  ZINC000443394081    0.1400
@<TRIPOS>BOND
     1     1     2    1
     2     1    30    1
     3     1    31    1
     4     1    32    1
     5     2     3    1
     6     3    20   ar
     7     3     4   ar
     8     4     5   ar
     9     4    33    1
    10     5     6    1
    11     5    18   ar
    12     6     7    2
    13     6     8   am
    14     8    14    1
    15     8     9    1
    16     9    10    1
    17     9    34    1
    18     9    35    1
    19    10    11    1
    20    10    36    1
    21    10    37    1
    22    11    12    1
    23    11    13    1
    24    11    14    1
    25    13    38    1
    26    13    39    1
    27    13    40    1
    28    14    15    1
    29    14    16    1
    30    16    17    1
    31    16    41    1
    32    16    42    1
    33    17    43    1
    34    18    19   ar
    35    18    44    1
    36    19    20   ar
    37    19    45    1
    38    20    21    1
    39    21    22    1
    40    22    23    1
    41    22    46    1
    42    22    47    1
    43    23    28   ar
    44    23    24   ar
    45    24    25   ar
    46    24    48    1
    47    25    26   ar
    48    25    49    1
    49    26    27   ar
    50    26    50    1
    51    27    28   ar
    52    27    51    1
    53    28    29    1
@<TRIPOS>SUBSTRUCTURE
     1 ZINC000443394081        1 TEMP              0 ****  ****    0 ROOT


##########                                Name:    ZINC001061022329
##########                DOCK_Rotatable_Bonds:                   7
##########                         Heavy_Atoms:                  27
##########                    Molecular_Weight:             374.523
##########                DOCK_Rotatable_Bonds:                   7
##########                       Formal_Charge:           0.0800005
##########                     HBond_Acceptors:                   5
##########                        HBond_Donors:                   0
##########                         Heavy_Atoms:                  27
##########                          Grid_Score:          -30.317570
##########                     Grid_vdw_energy:          -29.118471
##########                      Grid_es_energy:           -1.199098
##########           Internal_energy_repulsive:           26.275679

@<TRIPOS>MOLECULE
ZINC001061022329
 61 64 1 0 0
SMALL
USER_CHARGES


@<TRIPOS>ATOM
      1 C1         -1.0408    4.7588   57.1590 C.3     1  ZINC001061022329   -0.1500
      2 C2         -1.8587    4.9277   55.8770 C.3     1  ZINC001061022329   -0.1200
      3 C3         -2.4062    3.5680   55.4384 C.3     1  ZINC001061022329    0.0800
      4 H4         -1.6308    2.8104   55.5519 H       1  ZINC001061022329    0.0600
      5 C5         -3.6106    3.1991   56.3068 C.3     1  ZINC001061022329   -0.1800
      6 O6         -2.8090    3.6359   54.0691 O.3     1  ZINC001061022329   -0.3500
      7 C7         -3.6515    4.7494   53.7655 C.3     1  ZINC001061022329    0.0500
      8 C8         -4.1753    4.6143   52.3590 C.2     1  ZINC001061022329    0.5200
      9 O9         -3.7924    5.3731   51.4938 O.2     1  ZINC001061022329   -0.5100
     10 N10        -5.0692    3.6503   52.0624 N.am    1  ZINC001061022329   -0.6100
     11 C11        -5.5805    3.5043   50.6932 C.3     1  ZINC001061022329    0.1100
     12 C12        -7.1118    3.5734   50.7286 C.3     1  ZINC001061022329   -0.1200
     13 C13        -7.6340    2.5680   51.7521 C.3     1  ZINC001061022329   -0.0900
     14 C14        -9.1582    2.3902   51.7172 C.3     1  ZINC001061022329    0.1200
     15 N15        -8.8889    0.9457   51.8632 N.am    1  ZINC001061022329   -0.6400
     16 C16        -9.5919   -0.1023   52.3364 C.2     1  ZINC001061022329    0.5400
     17 O17        -9.1020   -1.2118   52.3345 O.2     1  ZINC001061022329   -0.5300
     18 C18       -10.9869    0.1045   52.8679 C.3     1  ZINC001061022329   -0.0900
     19 H19       -11.3013    1.1299   52.6733 H       1  ZINC001061022329    0.1000
     20 C20       -11.0018   -0.1560   54.3758 C.3     1  ZINC001061022329   -0.1000
     21 C21       -11.9735   -1.3008   54.6895 C.3     1  ZINC001061022329   -0.0600
     22 H22       -11.9610   -1.5376   55.7534 H       1  ZINC001061022329    0.0800
     23 C23       -11.5545   -2.5077   53.8631 C.2     1  ZINC001061022329   -0.1800
     24 C24       -11.5415   -2.2812   52.5517 C.2     1  ZINC001061022329   -0.1300
     25 C25       -11.9486   -0.8660   52.1702 C.3     1  ZINC001061022329   -0.0400
     26 H26       -11.9269   -0.7358   51.0883 H       1  ZINC001061022329    0.0900
     27 C27       -13.3613   -0.6233   52.7193 C.3     1  ZINC001061022329   -0.1100
     28 C28       -13.3793   -0.8763   54.2428 C.3     1  ZINC001061022329   -0.1100
     29 C29        -7.5414    1.1095   51.2824 C.3     1  ZINC001061022329    0.1100
     30 C30        -7.0767    2.7941   53.1553 C.3     1  ZINC001061022329   -0.1100
     31 C31        -5.5412    2.7268   53.1025 C.3     1  ZINC001061022329    0.1100
     32 H32        -1.6772    4.3527   57.9452 H       1  ZINC001061022329    0.0500
     33 H33        -0.2117    4.0760   56.9736 H       1  ZINC001061022329    0.0600
     34 H34        -0.6507    5.7275   57.4714 H       1  ZINC001061022329    0.0600
     35 H35        -2.6878    5.6107   56.0624 H       1  ZINC001061022329    0.0800
     36 H36        -1.2223    5.3340   55.0909 H       1  ZINC001061022329    0.0700
     37 H37        -4.0007    2.2304   55.9943 H       1  ZINC001061022329    0.0600
     38 H38        -3.3034    3.1473   57.3512 H       1  ZINC001061022329    0.0700
     39 H39        -4.3861    3.9567   56.1932 H       1  ZINC001061022329    0.0700
     40 H40        -4.4880    4.7733   54.4640 H       1  ZINC001061022329    0.0800
     41 H41        -3.0788    5.6727   53.8528 H       1  ZINC001061022329    0.0800
     42 H42        -5.1926    4.3105   50.0705 H       1  ZINC001061022329    0.0900
     43 H43        -5.2673    2.5426   50.2866 H       1  ZINC001061022329    0.0800
     44 H44        -7.4248    4.5781   51.0124 H       1  ZINC001061022329    0.0800
     45 H45        -7.5104    3.3310   49.7435 H       1  ZINC001061022329    0.0800
     46 H46        -9.6719    2.8304   52.5718 H       1  ZINC001061022329    0.0800
     47 H47        -9.6105    2.6589   50.7625 H       1  ZINC001061022329    0.0900
     48 H48        -9.9999   -0.4291   54.7070 H       1  ZINC001061022329    0.0700
     49 H49       -11.3230    0.7460   54.8968 H       1  ZINC001061022329    0.0700
     50 H50       -11.2919   -3.4597   54.3002 H       1  ZINC001061022329    0.1200
     51 H51       -11.2670   -3.0322   51.8257 H       1  ZINC001061022329    0.1200
     52 H52       -13.6535    0.4089   52.5263 H       1  ZINC001061022329    0.0700
     53 H53       -14.0628   -1.2971   52.2275 H       1  ZINC001061022329    0.0700
     54 H54       -14.0871   -1.6734   54.4702 H       1  ZINC001061022329    0.0700
     55 H55       -13.6813    0.0352   54.7587 H       1  ZINC001061022329    0.0700
     56 H56        -7.5131    0.9976   50.1984 H       1  ZINC001061022329    0.0900
     57 H57        -6.7699    0.5318   51.7914 H       1  ZINC001061022329    0.0800
     58 H58        -7.3886    3.7735   53.5179 H       1  ZINC001061022329    0.0800
     59 H59        -7.4513    2.0201   53.8252 H       1  ZINC001061022329    0.0800
     60 H60        -5.2280    1.7100   52.8654 H       1  ZINC001061022329    0.0700
     61 H61        -5.1291    3.0228   54.0671 H       1  ZINC001061022329    0.1000
@<TRIPOS>BOND
     1     1     2    1
     2     1    32    1
     3     1    33    1
     4     1    34    1
     5     2     3    1
     6     2    35    1
     7     2    36    1
     8     3     4    1
     9     3     5    1
    10     3     6    1
    11     5    37    1
    12     5    38    1
    13     5    39    1
    14     6     7    1
    15     7     8    1
    16     7    40    1
    17     7    41    1
    18     8     9    2
    19     8    10   am
    20    10    31    1
    21    10    11    1
    22    11    12    1
    23    11    42    1
    24    11    43    1
    25    12    13    1
    26    12    44    1
    27    12    45    1
    28    13    29    1
    29    13    14    1
    30    13    30    1
    31    14    15    1
    32    14    46    1
    33    14    47    1
    34    15    16   am
    35    15    29    1
    36    16    17    2
    37    16    18    1
    38    18    19    1
    39    18    25    1
    40    18    20    1
    41    20    21    1
    42    20    48    1
    43    20    49    1
    44    21    22    1
    45    21    28    1
    46    21    23    1
    47    23    24    2
    48    23    50    1
    49    24    25    1
    50    24    51    1
    51    25    26    1
    52    25    27    1
    53    27    28    1
    54    27    52    1
    55    27    53    1
    56    28    54    1
    57    28    55    1
    58    29    56    1
    59    29    57    1
    60    30    31    1
    61    30    58    1
    62    30    59    1
    63    31    60    1
    64    31    61    1
@<TRIPOS>SUBSTRUCTURE
     1 ZINC001061022329        1 TEMP              0 ****  ****    0 ROOT


##########                                Name:    ZINC000355549087
##########                DOCK_Rotatable_Bonds:                   9
##########                         Heavy_Atoms:                  23
##########                    Molecular_Weight:             336.415
##########                DOCK_Rotatable_Bonds:                   9
##########                       Formal_Charge:        -9.53674e-07
##########                     HBond_Acceptors:                   8
##########                        HBond_Donors:                   4
##########                         Heavy_Atoms:                  23
##########                          Grid_Score:          -30.306612
##########                     Grid_vdw_energy:          -28.005392
##########                      Grid_es_energy:           -2.301220
##########           Internal_energy_repulsive:            7.765240

@<TRIPOS>MOLECULE
ZINC000355549087
 43 44 1 0 0
SMALL
USER_CHARGES


@<TRIPOS>ATOM
      1 C1        -15.3147   -1.6416   55.1149 C.3     1  <0>        -0.1500
      2 C2        -15.5008   -2.8767   55.9984 C.3     1  <0>        -0.1200
      3 C3        -14.2486   -3.0860   56.8524 C.3     1  <0>        -0.1000
      4 H4        -13.3983   -2.5978   56.3761 H       1  <0>         0.0800
      5 C5        -13.9673   -4.5838   56.9869 C.3     1  <0>        -0.1500
      6 C6        -14.4713   -2.4823   58.2406 C.3     1  <0>         0.0900
      7 H7        -15.2671   -1.7391   58.1902 H       1  <0>         0.1000
      8 O8        -14.8417   -3.5156   59.1555 O.3     1  <0>        -0.3500
      9 C9        -15.6654   -3.0687   60.2344 C.3     1  <0>         0.0200
     10 C10       -13.1998   -1.8254   58.7125 C.2     1  <0>         0.5100
     11 O11       -12.9064   -0.7174   58.3161 O.2     1  <0>        -0.4800
     12 N12       -12.3886   -2.4692   59.5751 N.am    1  <0>        -0.6200
     13 C13       -11.2169   -1.8628   60.0114 C.2     1  <0>         0.2400
     14 N14       -11.0512   -1.3303   61.1800 N.2     1  <0>        -0.5000
     15 C15        -9.8648   -0.7932   61.4322 C.2     1  <0>         0.1700
     16 C16        -9.5303   -0.1476   62.7274 C.2     1  <0>        -0.1100
     17 C17       -10.1056    0.9795   63.2402 C.2     1  <0>         0.0600
     18 N18        -9.5312    1.2489   64.4381 N.pl3   1  <0>        -0.5400
     19 C19        -8.5793    0.2898   64.7001 C.2     1  <0>        -0.0600
     20 C20        -7.7317    0.2198   65.8955 C.2     1  <0>         0.5900
     21 N21        -6.9818    1.2811   66.2530 N.am    1  <0>        -0.8600
     22 O22        -7.7057   -0.7966   66.5643 O.2     1  <0>        -0.5300
     23 C23        -8.5664   -0.5893   63.6533 C.2     1  <0>        -0.0600
     24 C24        -8.9909   -0.8840   60.4136 C.2     1  <0>        -0.3200
     25 S25        -9.7882   -1.7207   59.0842 S.3     1  <0>         0.2500
     26 H26       -16.2068   -1.4925   54.5064 H       1  <0>         0.0600
     27 H27       -15.1532   -0.7661   55.7436 H       1  <0>         0.0600
     28 H28       -14.4517   -1.7864   54.4649 H       1  <0>         0.0600
     29 H29       -16.3637   -2.7319   56.6483 H       1  <0>         0.0600
     30 H30       -15.6622   -3.7523   55.3697 H       1  <0>         0.0700
     31 H31       -14.8177   -5.0719   57.4631 H       1  <0>         0.0700
     32 H32       -13.8086   -5.0139   55.9979 H       1  <0>         0.0600
     33 H33       -13.0753   -4.7329   57.5952 H       1  <0>         0.0500
     34 H34       -15.8205   -3.8881   60.9364 H       1  <0>         0.0900
     35 H35       -15.1762   -2.2398   60.7458 H       1  <0>         0.0500
     36 H36       -16.6277   -2.7377   59.8439 H       1  <0>         0.0500
     37 H37       -12.6226   -3.3559   59.8912 H       1  <0>         0.4200
     38 H38       -10.8868    1.5588   62.7705 H       1  <0>         0.1800
     39 H39        -9.7542    1.9955   65.0158 H       1  <0>         0.4200
     40 H40        -6.4223    1.2352   67.0441 H       1  <0>         0.4000
     41 H41        -7.0016    2.0908   65.7193 H       1  <0>         0.4100
     42 H42        -7.9311   -1.4568   63.5525 H       1  <0>         0.1500
     43 H43        -7.9770   -0.5122   60.4123 H       1  <0>         0.1800
@<TRIPOS>BOND
     1     1     2    1
     2     1    26    1
     3     1    27    1
     4     1    28    1
     5     2     3    1
     6     2    29    1
     7     2    30    1
     8     3     4    1
     9     3     5    1
    10     3     6    1
    11     5    31    1
    12     5    32    1
    13     5    33    1
    14     6     7    1
    15     6     8    1
    16     6    10    1
    17     8     9    1
    18     9    34    1
    19     9    35    1
    20     9    36    1
    21    10    11    2
    22    10    12   am
    23    12    13    1
    24    12    37    1
    25    13    25    1
    26    13    14    2
    27    14    15    1
    28    15    16    1
    29    15    24    2
    30    16    23    1
    31    16    17    2
    32    17    18    1
    33    17    38    1
    34    18    19    1
    35    18    39    1
    36    19    20    1
    37    19    23    2
    38    20    21   am
    39    20    22    2
    40    21    40    1
    41    21    41    1
    42    23    42    1
    43    24    25    1
    44    24    43    1
@<TRIPOS>SUBSTRUCTURE
     1 <0>         1 TEMP              0 ****  ****    0 ROOT


##########                                Name:    ZINC001300804061
##########                DOCK_Rotatable_Bonds:                   5
##########                         Heavy_Atoms:                  27
##########                    Molecular_Weight:              390.55
##########                DOCK_Rotatable_Bonds:                   5
##########                       Formal_Charge:                0.01
##########                     HBond_Acceptors:                   7
##########                        HBond_Donors:                   0
##########                         Heavy_Atoms:                  27
##########                          Grid_Score:          -30.272699
##########                     Grid_vdw_energy:          -30.003313
##########                      Grid_es_energy:           -0.269386
##########           Internal_energy_repulsive:           18.725481

@<TRIPOS>MOLECULE
ZINC001300804061
 57 60 1 0 0
SMALL
USER_CHARGES


@<TRIPOS>ATOM
      1 C1        -14.5941    0.0187   50.5756 C.3     1  ZINC001300804061    0.0300
      2 O2        -14.5246   -0.8708   51.6920 O.3     1  ZINC001300804061   -0.3800
      3 C3        -13.5727   -0.4839   52.6850 C.3     1  ZINC001300804061    0.1000
      4 H4        -13.7570    0.5482   52.9832 H       1  ZINC001300804061    0.0700
      5 C5        -12.1588   -0.6055   52.1123 C.3     1  ZINC001300804061    0.0500
      6 N6        -11.1792   -0.2282   53.1391 N.3     1  ZINC001300804061   -0.4600
      7 C7         -9.8975   -0.2014   52.6162 C.2     1  ZINC001300804061    0.3600
      8 N8         -9.1171   -1.2382   52.4147 N.2     1  ZINC001300804061   -0.3000
      9 N9         -7.9951   -0.8579   51.9167 N.2     1  ZINC001300804061   -0.2500
     10 C10        -7.9905    0.4488   51.7692 C.2     1  ZINC001300804061    0.2600
     11 C11        -6.8906    1.2651   51.2315 C.2     1  ZINC001300804061    0.0400
     12 C12        -6.9345    2.0197   50.0978 C.2     1  ZINC001300804061   -0.1300
     13 C13        -5.6706    2.6266   49.9659 C.2     1  ZINC001300804061   -0.2100
     14 C14        -4.9247    2.2189   51.0119 C.2     1  ZINC001300804061    0.0100
     15 C15        -3.4970    2.6193   51.2813 C.3     1  ZINC001300804061   -0.0800
     16 O16        -5.6661    1.4013   51.7776 O.3     1  ZINC001300804061   -0.1700
     17 N17        -9.2126    0.9078   52.2084 N.pl3   1  ZINC001300804061   -0.4600
     18 C18        -9.6776    2.2967   52.2396 C.3     1  ZINC001300804061    0.1200
     19 C19        -9.3275    2.9216   53.5915 C.3     1  ZINC001300804061   -0.1000
     20 H20        -9.7241    3.9360   53.6348 H       1  ZINC001300804061    0.0900
     21 C21        -7.8107    2.9636   53.7526 C.3     1  ZINC001300804061   -0.1200
     22 C22        -7.4190    3.8145   54.9569 C.3     1  ZINC001300804061   -0.1200
     23 C23        -7.7987    3.0926   56.2525 C.3     1  ZINC001300804061   -0.0800
     24 S24        -9.6044    2.8929   56.3056 S.3     1  ZINC001300804061   -0.2600
     25 C25        -9.9472    2.0850   54.7139 C.3     1  ZINC001300804061   -0.0700
     26 C26       -11.2551   -1.1241   54.3001 C.3     1  ZINC001300804061    0.0600
     27 C27       -12.6421   -1.0180   54.9382 C.3     1  ZINC001300804061   -0.1100
     28 C28       -13.7054   -1.3999   53.9048 C.3     1  ZINC001300804061   -0.0900
     29 H29       -13.5604   -2.4360   53.5987 H       1  ZINC001300804061    0.0800
     30 C30       -15.0972   -1.2385   54.5196 C.3     1  ZINC001300804061   -0.1400
     31 H31       -14.8757    1.0136   50.9208 H       1  ZINC001300804061    0.0400
     32 H32       -13.6208    0.0655   50.0872 H       1  ZINC001300804061    0.0400
     33 H33       -15.3389   -0.3445   49.8675 H       1  ZINC001300804061    0.0900
     34 H34       -11.9803   -1.6348   51.8009 H       1  ZINC001300804061    0.0700
     35 H35       -12.0569    0.0566   51.2525 H       1  ZINC001300804061    0.0800
     36 H36        -7.7757    2.1305   49.4296 H       1  ZINC001300804061    0.1600
     37 H37        -5.3580    3.2929   49.1755 H       1  ZINC001300804061    0.1600
     38 H38        -3.4819    3.5204   51.8945 H       1  ZINC001300804061    0.0900
     39 H39        -2.9867    1.8128   51.8080 H       1  ZINC001300804061    0.0800
     40 H40        -2.9898    2.8143   50.3364 H       1  ZINC001300804061    0.0900
     41 H41        -9.1927    2.8601   51.4424 H       1  ZINC001300804061    0.1100
     42 H42       -10.7580    2.3214   52.0967 H       1  ZINC001300804061    0.1000
     43 H43        -7.4365    1.9495   53.8925 H       1  ZINC001300804061    0.0700
     44 H44        -7.3658    3.3886   52.8528 H       1  ZINC001300804061    0.0800
     45 H45        -6.3432    3.9894   54.9420 H       1  ZINC001300804061    0.0800
     46 H46        -7.9401    4.7707   54.9093 H       1  ZINC001300804061    0.0800
     47 H47        -7.3220    2.1127   56.2777 H       1  ZINC001300804061    0.0800
     48 H48        -7.4711    3.6824   57.1087 H       1  ZINC001300804061    0.1100
     49 H49       -11.0246    2.0168   54.5636 H       1  ZINC001300804061    0.1000
     50 H50        -9.5120    1.0858   54.7103 H       1  ZINC001300804061    0.0900
     51 H51       -11.0809   -2.1510   53.9785 H       1  ZINC001300804061    0.0600
     52 H52       -10.4970   -0.8385   55.0295 H       1  ZINC001300804061    0.0800
     53 H53       -12.7033   -1.6946   55.7905 H       1  ZINC001300804061    0.0800
     54 H54       -12.8115    0.0056   55.2725 H       1  ZINC001300804061    0.0800
     55 H55       -15.2422   -0.2018   54.8232 H       1  ZINC001300804061    0.0500
     56 H56       -15.8534   -1.5106   53.7833 H       1  ZINC001300804061    0.0600
     57 H57       -15.1874   -1.8882   55.3901 H       1  ZINC001300804061    0.0600
@<TRIPOS>BOND
     1     1     2    1
     2     1    31    1
     3     1    32    1
     4     1    33    1
     5     2     3    1
     6     3     4    1
     7     3    28    1
     8     3     5    1
     9     5     6    1
    10     5    34    1
    11     5    35    1
    12     6     7    1
    13     6    26    1
    14     7    17    1
    15     7     8    2
    16     8     9    1
    17     9    10    2
    18    10    11    1
    19    10    17    1
    20    11    16    1
    21    11    12    2
    22    12    13    1
    23    12    36    1
    24    13    14    2
    25    13    37    1
    26    14    15    1
    27    14    16    1
    28    15    38    1
    29    15    39    1
    30    15    40    1
    31    17    18    1
    32    18    19    1
    33    18    41    1
    34    18    42    1
    35    19    20    1
    36    19    25    1
    37    19    21    1
    38    21    22    1
    39    21    43    1
    40    21    44    1
    41    22    23    1
    42    22    45    1
    43    22    46    1
    44    23    24    1
    45    23    47    1
    46    23    48    1
    47    24    25    1
    48    25    49    1
    49    25    50    1
    50    26    27    1
    51    26    51    1
    52    26    52    1
    53    27    28    1
    54    27    53    1
    55    27    54    1
    56    28    29    1
    57    28    30    1
    58    30    55    1
    59    30    56    1
    60    30    57    1
@<TRIPOS>SUBSTRUCTURE
     1 ZINC001300804061        1 TEMP              0 ****  ****    0 ROOT


##########                                Name:    ZINC001340305486
##########                DOCK_Rotatable_Bonds:                   8
##########                         Heavy_Atoms:                  27
##########                    Molecular_Weight:             378.431
##########                DOCK_Rotatable_Bonds:                   8
##########                       Formal_Charge:          0.00999955
##########                     HBond_Acceptors:                  10
##########                        HBond_Donors:                   2
##########                         Heavy_Atoms:                  27
##########                          Grid_Score:          -30.267601
##########                     Grid_vdw_energy:          -28.078812
##########                      Grid_es_energy:           -2.188789
##########           Internal_energy_repulsive:           10.363561

@<TRIPOS>MOLECULE
ZINC001340305486
 53 55 1 0 0
SMALL
USER_CHARGES


@<TRIPOS>ATOM
      1 C1        -11.2330   -1.4732   52.9981 C.3     1  ZINC001340305486    0.0900
      2 N2        -12.2519   -2.2485   53.7101 N.am    1  ZINC001340305486   -0.7300
      3 C3        -12.7754   -1.7783   54.8596 C.2     1  ZINC001340305486    0.5200
      4 O4        -12.4019   -0.7140   55.3053 O.2     1  ZINC001340305486   -0.5100
      5 C5        -13.8249   -2.5749   55.5911 C.3     1  ZINC001340305486    0.0600
      6 H6        -14.7815   -2.0557   55.5340 H       1  ZINC001340305486    0.0900
      7 C7        -13.4155   -2.7341   57.0597 C.3     1  ZINC001340305486    0.0900
      8 N8        -14.3534   -3.6671   57.7044 N.am    1  ZINC001340305486   -0.5800
      9 C9        -14.9611   -3.3488   58.8645 C.2     1  ZINC001340305486    0.5100
     10 O10       -15.7310   -4.1321   59.3809 O.2     1  ZINC001340305486   -0.5200
     11 C11       -14.6870   -2.0316   59.5150 C.2     1  ZINC001340305486    0.5200
     12 O12       -15.5095   -1.1415   59.4531 O.2     1  ZINC001340305486   -0.5000
     13 N13       -13.5263   -1.8322   60.1704 N.am    1  ZINC001340305486   -0.6900
     14 C14       -13.2569   -0.5404   60.8066 C.3     1  ZINC001340305486    0.1200
     15 C15       -11.8524   -0.5538   61.4134 C.3     1  ZINC001340305486   -0.0400
     16 C16       -11.8513    0.2394   62.6948 C.2     1  ZINC001340305486    0.1700
     17 N17       -12.8951    0.7526   63.2907 N.2     1  ZINC001340305486   -0.2800
     18 N18       -12.5268    1.3590   64.3651 N.2     1  ZINC001340305486   -0.2900
     19 C19       -11.2358    1.2550   64.5033 C.2     1  ZINC001340305486    0.1900
     20 C20       -10.3945    1.7939   65.6312 C.3     1  ZINC001340305486   -0.0400
     21 C21        -9.1671    2.5000   65.0473 C.3     1  ZINC001340305486   -0.1200
     22 C22        -8.0396    1.4902   64.8557 C.3     1  ZINC001340305486   -0.1300
     23 C23        -8.6055    0.1189   64.4895 C.3     1  ZINC001340305486   -0.1400
     24 C24        -9.3745    0.2130   63.1687 C.3     1  ZINC001340305486    0.1000
     25 N25       -10.7716    0.5487   63.4462 N.pl3   1  ZINC001340305486   -0.4600
     26 C26       -14.6075   -4.9579   57.0453 C.3     1  ZINC001340305486    0.0200
     27 C27       -14.9587   -4.6904   55.5773 C.3     1  ZINC001340305486    0.0500
     28 O28       -13.9465   -3.8675   54.9925 O.3     1  ZINC001340305486   -0.3500
     29 H29       -11.6425   -0.5014   52.7227 H       1  ZINC001340305486    0.0600
     30 H30       -10.3663   -1.3325   53.6440 H       1  ZINC001340305486    0.0600
     31 H31       -10.9321   -2.0089   52.0978 H       1  ZINC001340305486    0.0800
     32 H32       -12.5498   -3.1003   53.3543 H       1  ZINC001340305486    0.4000
     33 H33       -12.4028   -3.1332   57.1174 H       1  ZINC001340305486    0.0900
     34 H34       -13.4584   -1.7665   57.5597 H       1  ZINC001340305486    0.1100
     35 H35       -12.8695   -2.5441   60.2209 H       1  ZINC001340305486    0.4200
     36 H36       -13.3233    0.2525   60.0614 H       1  ZINC001340305486    0.0900
     37 H37       -13.9906   -0.3624   61.5927 H       1  ZINC001340305486    0.0800
     38 H38       -11.5566   -1.5819   61.6221 H       1  ZINC001340305486    0.0900
     39 H39       -11.1485   -0.1088   60.7100 H       1  ZINC001340305486    0.1100
     40 H40       -10.9798    2.5038   66.2155 H       1  ZINC001340305486    0.1000
     41 H41       -10.0724    0.9719   66.2706 H       1  ZINC001340305486    0.0900
     42 H42        -9.4261    2.9419   64.0852 H       1  ZINC001340305486    0.0600
     43 H43        -8.8401    3.2839   65.7305 H       1  ZINC001340305486    0.0800
     44 H44        -7.3817    1.8328   64.0569 H       1  ZINC001340305486    0.0700
     45 H45        -7.4688    1.4084   65.7807 H       1  ZINC001340305486    0.0800
     46 H46        -7.7879   -0.5941   64.3830 H       1  ZINC001340305486    0.0900
     47 H47        -9.2787   -0.2178   65.2779 H       1  ZINC001340305486    0.0800
     48 H48        -8.9286    0.9856   62.5425 H       1  ZINC001340305486    0.0900
     49 H49        -9.3286   -0.7457   62.6521 H       1  ZINC001340305486    0.1000
     50 H50       -13.7148   -5.5809   57.1016 H       1  ZINC001340305486    0.0800
     51 H51       -15.4397   -5.4629   57.5358 H       1  ZINC001340305486    0.1700
     52 H52       -15.0154   -5.6361   55.0383 H       1  ZINC001340305486    0.1200
     53 H53       -15.9200   -4.1796   55.5202 H       1  ZINC001340305486    0.0600
@<TRIPOS>BOND
     1     1     2    1
     2     1    29    1
     3     1    30    1
     4     1    31    1
     5     2     3   am
     6     2    32    1
     7     3     4    2
     8     3     5    1
     9     5     6    1
    10     5    28    1
    11     5     7    1
    12     7     8    1
    13     7    33    1
    14     7    34    1
    15     8     9   am
    16     8    26    1
    17     9    10    2
    18     9    11    1
    19    11    12    2
    20    11    13   am
    21    13    14    1
    22    13    35    1
    23    14    15    1
    24    14    36    1
    25    14    37    1
    26    15    16    1
    27    15    38    1
    28    15    39    1
    29    16    25    1
    30    16    17    2
    31    17    18    1
    32    18    19    2
    33    19    25    1
    34    19    20    1
    35    20    21    1
    36    20    40    1
    37    20    41    1
    38    21    22    1
    39    21    42    1
    40    21    43    1
    41    22    23    1
    42    22    44    1
    43    22    45    1
    44    23    24    1
    45    23    46    1
    46    23    47    1
    47    24    25    1
    48    24    48    1
    49    24    49    1
    50    26    27    1
    51    26    50    1
    52    26    51    1
    53    27    28    1
    54    27    52    1
    55    27    53    1
@<TRIPOS>SUBSTRUCTURE
     1 ZINC001340305486        1 TEMP              0 ****  ****    0 ROOT


##########                                Name:    ZINC000426567005
##########                DOCK_Rotatable_Bonds:                   9
##########                         Heavy_Atoms:                  31
##########                    Molecular_Weight:             417.467
##########                DOCK_Rotatable_Bonds:                   9
##########                       Formal_Charge:        -2.23517e-07
##########                     HBond_Acceptors:                   8
##########                        HBond_Donors:                   4
##########                         Heavy_Atoms:                  31
##########                          Grid_Score:          -30.249416
##########                     Grid_vdw_energy:          -23.108370
##########                      Grid_es_energy:           -7.141046
##########           Internal_energy_repulsive:           15.328103

@<TRIPOS>MOLECULE
ZINC000426567005
 54 57 1 0 0
SMALL
USER_CHARGES


@<TRIPOS>ATOM
      1 O1         -7.0622    0.7982   66.6358 O.2     1  ZINC000426567005   -0.4900
      2 C2         -7.2766    1.3113   65.5568 C.2     1  ZINC000426567005    0.5200
      3 N3         -6.6848    2.4791   65.2364 N.am    1  ZINC000426567005   -0.6000
      4 C4         -5.8279    3.1029   66.1499 C.2     1  ZINC000426567005    0.3000
      5 N5         -5.5189    2.6576   67.3456 N.2     1  ZINC000426567005   -0.3100
      6 N6         -4.6363    3.5706   67.9369 N.pl3   1  ZINC000426567005   -0.4600
      7 C7         -4.4253    4.5758   67.0610 C.2     1  ZINC000426567005    0.1100
      8 C8         -3.5407    5.7754   67.2838 C.3     1  ZINC000426567005   -0.0300
      9 C9         -2.2967    5.3840   68.1193 C.3     1  ZINC000426567005   -0.1200
     10 C10        -1.2709    6.4804   67.7389 C.3     1  ZINC000426567005   -0.1300
     11 C11        -1.5134    6.7199   66.2344 C.3     1  ZINC000426567005   -0.1300
     12 C12        -2.9566    6.2717   65.9450 C.3     1  ZINC000426567005   -0.1200
     13 C13        -5.1429    4.3121   65.9458 C.2     1  ZINC000426567005   -0.2600
     14 C14        -8.1906    0.6459   64.5824 C.2     1  ZINC000426567005    0.5200
     15 O15        -9.0006   -0.1707   64.9702 O.2     1  ZINC000426567005   -0.4900
     16 N16        -8.1165    0.9517   63.2719 N.am    1  ZINC000426567005   -0.6400
     17 C17        -8.9694    0.3308   62.3627 C.ar    1  ZINC000426567005    0.1700
     18 C18        -8.6023   -0.8791   61.7808 C.ar    1  ZINC000426567005   -0.1300
     19 C19        -9.4431   -1.4954   60.8818 C.ar    1  ZINC000426567005   -0.0300
     20 C20       -10.6668   -0.9051   60.5538 C.ar    1  ZINC000426567005   -0.1500
     21 C21       -11.5708   -1.5633   59.5908 C.2     1  ZINC000426567005    0.5600
     22 O22       -11.1362   -2.4000   58.8231 O.2     1  ZINC000426567005   -0.5100
     23 N23       -12.8782   -1.2368   59.5623 N.am    1  ZINC000426567005   -0.6700
     24 C24       -13.7348   -1.8606   58.6497 C.ar    1  ZINC000426567005    0.1400
     25 C25       -13.7484   -1.4576   57.3206 C.ar    1  ZINC000426567005   -0.1500
     26 C26       -14.5952   -2.0760   56.4216 C.ar    1  ZINC000426567005   -0.1000
     27 C27       -15.4290   -3.0953   56.8438 C.ar    1  ZINC000426567005   -0.1300
     28 C28       -15.4182   -3.4986   58.1665 C.ar    1  ZINC000426567005   -0.1000
     29 C29       -14.5697   -2.8883   59.0692 C.ar    1  ZINC000426567005   -0.1200
     30 C30       -11.0328    0.3097   61.1402 C.ar    1  ZINC000426567005   -0.0600
     31 C31       -10.1896    0.9185   62.0422 C.ar    1  ZINC000426567005   -0.1400
     32 H32        -6.8528    2.8871   64.3726 H       1  ZINC000426567005    0.4300
     33 H33        -4.2451    3.4939   68.8212 H       1  ZINC000426567005    0.4400
     34 H34        -4.0978    6.5728   67.7759 H       1  ZINC000426567005    0.1100
     35 H35        -2.5210    5.4180   69.1854 H       1  ZINC000426567005    0.0800
     36 H36        -1.9327    4.3978   67.8312 H       1  ZINC000426567005    0.0700
     37 H37        -1.4592    7.3922   68.3055 H       1  ZINC000426567005    0.0700
     38 H38        -0.2539    6.1271   67.9100 H       1  ZINC000426567005    0.0700
     39 H39        -1.3973    7.7783   66.0013 H       1  ZINC000426567005    0.0700
     40 H40        -0.8133    6.1282   65.6445 H       1  ZINC000426567005    0.0700
     41 H41        -2.9570    5.4624   65.2147 H       1  ZINC000426567005    0.0600
     42 H42        -3.5410    7.1126   65.5715 H       1  ZINC000426567005    0.0700
     43 H43        -5.1873    4.9259   65.0584 H       1  ZINC000426567005    0.1700
     44 H44        -7.4692    1.6042   62.9619 H       1  ZINC000426567005    0.4300
     45 H45        -7.6567   -1.3348   62.0347 H       1  ZINC000426567005    0.1500
     46 H46        -9.1574   -2.4338   60.4301 H       1  ZINC000426567005    0.1400
     47 H47       -13.2249   -0.5693   60.1747 H       1  ZINC000426567005    0.4100
     48 H48       -13.0977   -0.6614   56.9904 H       1  ZINC000426567005    0.1300
     49 H49       -14.6065   -1.7629   55.3882 H       1  ZINC000426567005    0.1300
     50 H50       -16.0903   -3.5773   56.1389 H       1  ZINC000426567005    0.1200
     51 H51       -16.0711   -4.2945   58.4931 H       1  ZINC000426567005    0.1300
     52 H52       -14.5614   -3.2038   60.1020 H       1  ZINC000426567005    0.1300
     53 H53       -11.9775    0.7686   60.8886 H       1  ZINC000426567005    0.1300
     54 H54       -10.4718    1.8572   62.4957 H       1  ZINC000426567005    0.1400
@<TRIPOS>BOND
     1     1     2    2
     2     2     3   am
     3     2    14    1
     4     3     4    1
     5     3    32    1
     6     4    13    1
     7     4     5    2
     8     5     6    1
     9     6     7    1
    10     6    33    1
    11     7     8    1
    12     7    13    2
    13     8    12    1
    14     8     9    1
    15     8    34    1
    16     9    10    1
    17     9    35    1
    18     9    36    1
    19    10    11    1
    20    10    37    1
    21    10    38    1
    22    11    12    1
    23    11    39    1
    24    11    40    1
    25    12    41    1
    26    12    42    1
    27    13    43    1
    28    14    15    2
    29    14    16   am
    30    16    17    1
    31    16    44    1
    32    17    31   ar
    33    17    18   ar
    34    18    19   ar
    35    18    45    1
    36    19    20   ar
    37    19    46    1
    38    20    21    1
    39    20    30   ar
    40    21    22    2
    41    21    23   am
    42    23    24    1
    43    23    47    1
    44    24    29   ar
    45    24    25   ar
    46    25    26   ar
    47    25    48    1
    48    26    27   ar
    49    26    49    1
    50    27    28   ar
    51    27    50    1
    52    28    29   ar
    53    28    51    1
    54    29    52    1
    55    30    31   ar
    56    30    53    1
    57    31    54    1
@<TRIPOS>SUBSTRUCTURE
     1 ZINC000426567005        1 TEMP              0 ****  ****    0 ROOT


##########                                Name:    ZINC000006915700
##########                DOCK_Rotatable_Bonds:                   5
##########                         Heavy_Atoms:                  26
##########                    Molecular_Weight:             369.447
##########                DOCK_Rotatable_Bonds:                   5
##########                       Formal_Charge:        -1.04308e-07
##########                     HBond_Acceptors:                   8
##########                        HBond_Donors:                   1
##########                         Heavy_Atoms:                  26
##########                          Grid_Score:          -30.246387
##########                     Grid_vdw_energy:          -29.406418
##########                      Grid_es_energy:           -0.839969
##########           Internal_energy_repulsive:            6.491730

@<TRIPOS>MOLECULE
ZINC000006915700
 45 48 1 0 0
SMALL
USER_CHARGES


@<TRIPOS>ATOM
      1 C1        -10.9180   -1.1594   51.7694 C.3     1  <0>        -0.1200
      2 C2        -11.2575   -1.3135   53.2296 C.ar    1  <0>        -0.0500
      3 C3        -11.5533   -2.5651   53.7396 C.ar    1  <0>        -0.1300
      4 C4        -11.8645   -2.7128   55.0757 C.ar    1  <0>        -0.0600
      5 C5        -11.8807   -1.5968   55.9126 C.ar    1  <0>        -0.0700
      6 C6        -12.2134   -1.7485   57.3477 C.2     1  <0>         0.4400
      7 N7        -13.4784   -1.9191   57.7090 N.2     1  <0>        -0.5200
      8 C8        -13.7938   -2.0579   59.0002 C.2     1  <0>         0.3600
      9 C9        -14.9962   -2.2469   59.6692 C.2     1  <0>        -0.3200
     10 C10       -14.7155   -2.3252   61.0342 C.2     1  <0>         0.5500
     11 O11       -15.5355   -2.4895   61.9229 O.2     1  <0>        -0.5200
     12 N12       -13.3859   -2.1894   61.2048 N.am    1  <0>        -0.5000
     13 N13       -12.7932   -2.0217   59.9494 N.pl3   1  <0>        -0.3300
     14 C14       -11.5014   -1.8447   59.5454 C.2     1  <0>         0.3900
     15 S15       -10.1990   -1.7938   60.7312 S.3     1  <0>         0.1200
     16 C16        -8.9852   -0.8054   59.8224 C.3     1  <0>        -0.1500
     17 C17        -9.1669    0.6513   60.1637 C.2     1  <0>         0.5500
     18 O18        -9.5731    0.9710   61.2608 O.2     1  <0>        -0.5200
     19 N19        -8.8783    1.5985   59.2495 N.am    1  <0>        -0.6100
     20 C20        -9.0045    3.0496   59.4499 C.3     1  <0>         0.0900
     21 C21        -8.5896    3.7323   58.1296 C.3     1  <0>        -0.1300
     22 C22        -8.7944    2.6095   57.0785 C.3     1  <0>        -0.1400
     23 C23        -8.3777    1.3516   57.8850 C.3     1  <0>         0.1000
     24 N24       -11.2344   -1.7167   58.2550 N.2     1  <0>        -0.5600
     25 C25       -11.5815   -0.3376   55.3923 C.ar    1  <0>        -0.0500
     26 C26       -11.2667   -0.2036   54.0556 C.ar    1  <0>        -0.1300
     27 H27        -9.8427   -1.2740   51.6324 H       1  <0>         0.0800
     28 H28       -11.4411   -1.9218   51.1923 H       1  <0>         0.0700
     29 H29       -11.2244   -0.1708   51.4275 H       1  <0>         0.0700
     30 H30       -11.5408   -3.4282   53.0907 H       1  <0>         0.1300
     31 H31       -12.0956   -3.6902   55.4727 H       1  <0>         0.1300
     32 H32       -15.9733   -2.3199   59.2148 H       1  <0>         0.1800
     33 H33       -12.9187   -2.2055   62.0547 H       1  <0>         0.4400
     34 H34        -7.9793   -1.1206   60.0995 H       1  <0>         0.1400
     35 H35        -9.1288   -0.9483   58.7515 H       1  <0>         0.1400
     36 H36       -10.0374    3.3023   59.6893 H       1  <0>         0.0800
     37 H37        -8.3456    3.3711   60.2565 H       1  <0>         0.0800
     38 H38        -9.2362    4.5833   57.9157 H       1  <0>         0.0900
     39 H39        -7.5447    4.0401   58.1664 H       1  <0>         0.0800
     40 H40        -9.8376    2.5507   56.7679 H       1  <0>         0.0800
     41 H41        -8.1402    2.7549   56.2189 H       1  <0>         0.0900
     42 H42        -7.2930    1.2443   57.8868 H       1  <0>         0.0800
     43 H43        -8.8472    0.4608   57.4678 H       1  <0>         0.0800
     44 H44       -11.5924    0.5301   56.0352 H       1  <0>         0.1400
     45 H45       -11.0346    0.7707   53.6517 H       1  <0>         0.1300
@<TRIPOS>BOND
     1     1     2    1
     2     1    27    1
     3     1    28    1
     4     1    29    1
     5     2    26   ar
     6     2     3   ar
     7     3     4   ar
     8     3    30    1
     9     4     5   ar
    10     4    31    1
    11     5     6    1
    12     5    25   ar
    13     6    24    1
    14     6     7    2
    15     7     8    1
    16     8    13    1
    17     8     9    2
    18     9    10    1
    19     9    32    1
    20    10    11    2
    21    10    12   am
    22    12    13    1
    23    12    33    1
    24    13    14    1
    25    14    15    1
    26    14    24    2
    27    15    16    1
    28    16    17    1
    29    16    34    1
    30    16    35    1
    31    17    18    2
    32    17    19   am
    33    19    23    1
    34    19    20    1
    35    20    21    1
    36    20    36    1
    37    20    37    1
    38    21    22    1
    39    21    38    1
    40    21    39    1
    41    22    23    1
    42    22    40    1
    43    22    41    1
    44    23    42    1
    45    23    43    1
    46    25    26   ar
    47    25    44    1
    48    26    45    1
@<TRIPOS>SUBSTRUCTURE
     1 <0>         1 TEMP              0 ****  ****    0 ROOT


##########                                Name:    ZINC000074782190
##########                DOCK_Rotatable_Bonds:                   9
##########                         Heavy_Atoms:                  25
##########                    Molecular_Weight:             341.453
##########                DOCK_Rotatable_Bonds:                   9
##########                       Formal_Charge:          -0.0200006
##########                     HBond_Acceptors:                   5
##########                        HBond_Donors:                   1
##########                         Heavy_Atoms:                  25
##########                          Grid_Score:          -30.227114
##########                     Grid_vdw_energy:          -29.858541
##########                      Grid_es_energy:           -0.368571
##########           Internal_energy_repulsive:           26.833157

@<TRIPOS>MOLECULE
ZINC000074782190
 52 53 1 0 0
SMALL
USER_CHARGES


@<TRIPOS>ATOM
      1 C1        -11.8908    1.0829   62.9805 C.3     1  ZINC000074782190   -0.1100
      2 C2        -10.5105    0.9731   63.5751 C.ar    1  ZINC000074782190   -0.1200
      3 C3        -10.1696    1.7343   64.6761 C.ar    1  ZINC000074782190   -0.0800
      4 C4         -8.9029    1.6344   65.2219 C.ar    1  ZINC000074782190   -0.1500
      5 C5         -7.9751    0.7724   64.6677 C.ar    1  ZINC000074782190   -0.0900
      6 C6         -8.3113    0.0083   63.5668 C.ar    1  ZINC000074782190   -0.2100
      7 C7         -9.5828    0.1029   63.0206 C.ar    1  ZINC000074782190    0.1300
      8 O8         -9.9160   -0.6475   61.9376 O.3     1  ZINC000074782190   -0.3000
      9 C9         -9.0521   -0.5673   60.8022 C.3     1  ZINC000074782190    0.0700
     10 H10        -8.0143   -0.6241   61.1306 H       1  ZINC000074782190    0.0800
     11 C11        -9.2855    0.7592   60.0764 C.3     1  ZINC000074782190   -0.1800
     12 C12        -9.3503   -1.7283   59.8514 C.3     1  ZINC000074782190    0.1400
     13 N13       -10.7646   -1.6968   59.4707 N.am    1  ZINC000074782190   -0.7500
     14 C14       -11.2228   -2.5250   58.5112 C.2     1  ZINC000074782190    0.7100
     15 O15       -10.4624   -3.2983   57.9617 O.2     1  ZINC000074782190   -0.5900
     16 N16       -12.5239   -2.4961   58.1609 N.am    1  ZINC000074782190   -0.6200
     17 C17       -13.0219   -3.3963   57.1180 C.3     1  ZINC000074782190    0.1800
     18 C18       -12.6358   -2.8590   55.7641 C.ar    1  ZINC000074782190   -0.1600
     19 C19       -13.5330   -2.1011   55.0277 C.ar    1  ZINC000074782190   -0.0500
     20 C20       -13.1342   -1.6270   53.7870 C.ar    1  ZINC000074782190   -0.1800
     21 C21       -11.8645   -1.9236   53.3293 C.ar    1  ZINC000074782190    0.1000
     22 N22       -11.0371   -2.6479   54.0573 N.ar    1  ZINC000074782190   -0.4900
     23 C23       -11.3804   -3.1106   55.2432 C.ar    1  ZINC000074782190    0.1100
     24 C24       -13.4402   -1.5642   58.8231 C.3     1  ZINC000074782190    0.1300
     25 C25       -14.3572   -0.9227   57.7798 C.3     1  ZINC000074782190   -0.1800
     26 C26       -14.2859   -2.3224   59.8482 C.3     1  ZINC000074782190   -0.1800
     27 H27       -12.5520    0.3618   63.4610 H       1  ZINC000074782190    0.0700
     28 H28       -12.2756    2.0905   63.1389 H       1  ZINC000074782190    0.0600
     29 H29       -11.8435    0.8761   61.9114 H       1  ZINC000074782190    0.0700
     30 H30       -10.8928    2.4084   65.1107 H       1  ZINC000074782190    0.1300
     31 H31        -8.6381    2.2310   66.0823 H       1  ZINC000074782190    0.1200
     32 H32        -6.9863    0.6963   65.0957 H       1  ZINC000074782190    0.1200
     33 H33        -7.5859   -0.6647   63.1341 H       1  ZINC000074782190    0.1300
     34 H34       -10.3233    0.8160   59.7481 H       1  ZINC000074782190    0.0700
     35 H35        -9.0729    1.5863   60.7538 H       1  ZINC000074782190    0.0700
     36 H36        -8.6264    0.8204   59.2104 H       1  ZINC000074782190    0.0800
     37 H37        -8.7316   -1.6351   58.9589 H       1  ZINC000074782190    0.0800
     38 H38        -9.1291   -2.6722   60.3499 H       1  ZINC000074782190    0.0900
     39 H39       -11.3713   -1.0799   59.9092 H       1  ZINC000074782190    0.4100
     40 H40       -12.5862   -4.3861   57.2539 H       1  ZINC000074782190    0.0900
     41 H41       -14.1077   -3.4650   57.1854 H       1  ZINC000074782190    0.1000
     42 H42       -14.5194   -1.8853   55.4109 H       1  ZINC000074782190    0.1400
     43 H43       -13.8075   -1.0338   53.1861 H       1  ZINC000074782190    0.1300
     44 H44       -11.5465   -1.5585   52.3639 H       1  ZINC000074782190    0.1600
     45 H45       -10.6755   -3.7004   55.8106 H       1  ZINC000074782190    0.1500
     46 H46       -12.8660   -0.7878   59.3288 H       1  ZINC000074782190    0.1000
     47 H47       -14.9956   -1.6877   57.3379 H       1  ZINC000074782190    0.0600
     48 H48       -14.9768   -0.1641   58.2580 H       1  ZINC000074782190    0.0700
     49 H49       -13.7523   -0.4594   57.0003 H       1  ZINC000074782190    0.0600
     50 H50       -13.6450   -2.6817   60.6534 H       1  ZINC000074782190    0.0700
     51 H51       -15.0447   -1.6556   60.2577 H       1  ZINC000074782190    0.0700
     52 H52       -14.7704   -3.1702   59.3637 H       1  ZINC000074782190    0.0700
@<TRIPOS>BOND
     1     1     2    1
     2     1    27    1
     3     1    28    1
     4     1    29    1
     5     2     7   ar
     6     2     3   ar
     7     3     4   ar
     8     3    30    1
     9     4     5   ar
    10     4    31    1
    11     5     6   ar
    12     5    32    1
    13     6     7   ar
    14     6    33    1
    15     7     8    1
    16     8     9    1
    17     9    10    1
    18     9    11    1
    19     9    12    1
    20    11    34    1
    21    11    35    1
    22    11    36    1
    23    12    13    1
    24    12    37    1
    25    12    38    1
    26    13    14   am
    27    13    39    1
    28    14    15    2
    29    14    16   am
    30    16    17    1
    31    16    24    1
    32    17    18    1
    33    17    40    1
    34    17    41    1
    35    18    23   ar
    36    18    19   ar
    37    19    20   ar
    38    19    42    1
    39    20    21   ar
    40    20    43    1
    41    21    22   ar
    42    21    44    1
    43    22    23   ar
    44    23    45    1
    45    24    25    1
    46    24    26    1
    47    24    46    1
    48    25    47    1
    49    25    48    1
    50    25    49    1
    51    26    50    1
    52    26    51    1
    53    26    52    1
@<TRIPOS>SUBSTRUCTURE
     1 ZINC000074782190        1 TEMP              0 ****  ****    0 ROOT


##########                                Name:    ZINC000822449555
##########                DOCK_Rotatable_Bonds:                   5
##########                         Heavy_Atoms:                  27
##########                    Molecular_Weight:             366.383
##########                DOCK_Rotatable_Bonds:                   5
##########                       Formal_Charge:          -0.0100009
##########                     HBond_Acceptors:                  10
##########                        HBond_Donors:                   2
##########                         Heavy_Atoms:                  27
##########                          Grid_Score:          -30.198633
##########                     Grid_vdw_energy:          -28.465895
##########                      Grid_es_energy:           -1.732739
##########           Internal_energy_repulsive:            9.161569

@<TRIPOS>MOLECULE
ZINC000822449555
 45 48 1 0 0
SMALL
USER_CHARGES


@<TRIPOS>ATOM
      1 C1         -8.3488    3.4996   52.4131 C.3     1  ZINC000822449555   -0.1100
      2 C2         -8.6427    2.0246   52.3171 C.ar    1  ZINC000822449555    0.1400
      3 N3         -9.8945    1.6082   52.3103 N.ar    1  ZINC000822449555   -0.5000
      4 C4        -10.1995    0.3227   52.2275 C.ar    1  ZINC000822449555    0.3000
      5 N5        -11.5355   -0.0689   52.2238 N.3     1  ZINC000822449555   -0.4700
      6 C6        -12.4257    1.0964   52.1190 C.3     1  ZINC000822449555    0.0200
      7 C7        -13.8787    0.6180   52.0583 C.3     1  ZINC000822449555    0.0600
      8 O8        -14.1620   -0.1775   53.2125 O.3     1  ZINC000822449555   -0.3800
      9 C9        -13.3140   -1.3215   53.3456 C.3     1  ZINC000822449555    0.0600
     10 C10       -11.8552   -0.8627   53.4193 C.3     1  ZINC000822449555    0.0300
     11 C11        -9.2004   -0.6411   52.1437 C.ar    1  ZINC000822449555   -0.1700
     12 C12        -7.8764   -0.2417   52.1482 C.ar    1  ZINC000822449555   -0.0500
     13 C13        -7.5943    1.1209   52.2314 C.ar    1  ZINC000822449555    0.0600
     14 N14        -6.2675    1.5712   52.2391 N.am    1  ZINC000822449555   -0.6600
     15 C15        -5.6695    1.9260   51.0846 C.2     1  ZINC000822449555    0.5700
     16 O16        -6.2813    1.8552   50.0362 O.2     1  ZINC000822449555   -0.5100
     17 C17        -4.2709    2.4006   51.0928 C.ar    1  ZINC000822449555   -0.1800
     18 C18        -3.5529    2.4748   52.2941 C.ar    1  ZINC000822449555   -0.0100
     19 C19        -2.2478    2.9247   52.2520 C.ar    1  ZINC000822449555   -0.1300
     20 C20        -1.6921    3.2873   51.0259 C.ar    1  ZINC000822449555    0.2300
     21 C21        -0.2911    3.7715   50.9719 C.2     1  ZINC000822449555    0.2100
     22 N22         0.5373    3.9016   51.9897 N.2     1  ZINC000822449555   -0.2500
     23 N23         1.6560    4.3490   51.5327 N.pl3   1  ZINC000822449555   -0.2200
     24 N24         1.5632    4.5066   50.2584 N.2     1  ZINC000822449555   -0.0400
     25 N25         0.3816    4.1568   49.8777 N.2     1  ZINC000822449555   -0.2500
     26 N26        -2.4002    3.2045   49.9059 N.ar    1  ZINC000822449555   -0.4500
     27 C27        -3.6435    2.7762   49.9028 C.ar    1  ZINC000822449555    0.1400
     28 H28        -8.3004    3.9264   51.4113 H       1  ZINC000822449555    0.0800
     29 H29        -9.1394    3.9915   52.9798 H       1  ZINC000822449555    0.0800
     30 H30        -7.3940    3.6478   52.9176 H       1  ZINC000822449555    0.0700
     31 H31       -12.2898    1.7378   52.9897 H       1  ZINC000822449555    0.0600
     32 H32       -12.1885    1.6554   51.2137 H       1  ZINC000822449555    0.1000
     33 H33       -14.5453    1.4802   52.0380 H       1  ZINC000822449555    0.1100
     34 H34       -14.0279    0.0206   51.1589 H       1  ZINC000822449555    0.0600
     35 H35       -13.5721   -1.8619   54.2563 H       1  ZINC000822449555    0.1000
     36 H36       -13.4467   -1.9752   52.4836 H       1  ZINC000822449555    0.0600
     37 H37       -11.2015   -1.7337   53.4633 H       1  ZINC000822449555    0.1000
     38 H38       -11.7102   -0.2526   54.3108 H       1  ZINC000822449555    0.0600
     39 H39        -9.4553   -1.6884   52.0764 H       1  ZINC000822449555    0.1400
     40 H40        -7.0798   -0.9681   52.0846 H       1  ZINC000822449555    0.1500
     41 H41        -5.7794    1.6276   53.0755 H       1  ZINC000822449555    0.4100
     42 H42        -4.0091    2.1876   53.2299 H       1  ZINC000822449555    0.1600
     43 H43        -1.6648    2.9951   53.1584 H       1  ZINC000822449555    0.1600
     44 H44         2.4444    4.5374   52.0653 H       1  ZINC000822449555    0.4800
     45 H45        -4.1878    2.7223   48.9716 H       1  ZINC000822449555    0.1700
@<TRIPOS>BOND
     1     1     2    1
     2     1    28    1
     3     1    29    1
     4     1    30    1
     5     2    13   ar
     6     2     3   ar
     7     3     4   ar
     8     4     5    1
     9     4    11   ar
    10     5    10    1
    11     5     6    1
    12     6     7    1
    13     6    31    1
    14     6    32    1
    15     7     8    1
    16     7    33    1
    17     7    34    1
    18     8     9    1
    19     9    10    1
    20     9    35    1
    21     9    36    1
    22    10    37    1
    23    10    38    1
    24    11    12   ar
    25    11    39    1
    26    12    13   ar
    27    12    40    1
    28    13    14    1
    29    14    15   am
    30    14    41    1
    31    15    16    2
    32    15    17    1
    33    17    27   ar
    34    17    18   ar
    35    18    19   ar
    36    18    42    1
    37    19    20   ar
    38    19    43    1
    39    20    21    1
    40    20    26   ar
    41    21    25    1
    42    21    22    2
    43    22    23    1
    44    23    24    1
    45    23    44    1
    46    24    25    2
    47    26    27   ar
    48    27    45    1
@<TRIPOS>SUBSTRUCTURE
     1 ZINC000822449555        1 TEMP              0 ****  ****    0 ROOT


##########                                Name:    ZINC000650955167
##########                DOCK_Rotatable_Bonds:                   9
##########                         Heavy_Atoms:                  26
##########                    Molecular_Weight:             361.484
##########                DOCK_Rotatable_Bonds:                   9
##########                       Formal_Charge:        -7.07805e-07
##########                     HBond_Acceptors:                   6
##########                        HBond_Donors:                   2
##########                         Heavy_Atoms:                  26
##########                          Grid_Score:          -30.159540
##########                     Grid_vdw_energy:          -28.656343
##########                      Grid_es_energy:           -1.503196
##########           Internal_energy_repulsive:           14.364411

@<TRIPOS>MOLECULE
ZINC000650955167
 57 59 1 0 0
SMALL
USER_CHARGES


@<TRIPOS>ATOM
      1 C1        -13.1234   -2.3693   58.1683 C.3     1  ZINC000650955167    0.0200
      2 O2        -11.7783   -2.0766   57.7846 O.3     1  ZINC000650955167   -0.3200
      3 C3        -11.5734   -1.6950   56.4964 C.ar    1  ZINC000650955167    0.1300
      4 C4        -11.5389   -2.6462   55.4873 C.ar    1  ZINC000650955167   -0.2000
      5 C5        -11.3309   -2.2556   54.1784 C.ar    1  ZINC000650955167   -0.0800
      6 C6        -11.1568   -0.9184   53.8742 C.ar    1  ZINC000650955167   -0.1500
      7 C7        -11.1901    0.0317   54.8784 C.ar    1  ZINC000650955167   -0.0800
      8 C8        -11.4039   -0.3529   56.1877 C.ar    1  ZINC000650955167   -0.1100
      9 C9        -11.4408    0.6829   57.2816 C.3     1  ZINC000650955167   -0.0800
     10 C10       -10.0245    0.9153   57.8119 C.3     1  ZINC000650955167    0.1800
     11 H11        -9.3795    0.0950   57.4971 H       1  ZINC000650955167    0.0900
     12 N12       -10.0553    0.9784   59.2753 N.am    1  ZINC000650955167   -0.7300
     13 C13        -9.2513    0.1767   60.0014 C.2     1  ZINC000650955167    0.7400
     14 O14        -8.4993   -0.5979   59.4419 O.2     1  ZINC000650955167   -0.5800
     15 N15        -9.2808    0.2336   61.3476 N.am    1  ZINC000650955167   -0.6700
     16 C16       -10.0255    0.9985   62.3591 C.3     1  ZINC000650955167    0.1100
     17 C17        -8.8299    0.8104   63.3032 C.3     1  ZINC000650955167    0.0300
     18 N18        -9.2010    0.5283   64.6963 N.3     1  ZINC000650955167   -0.5100
     19 C19       -10.0220    1.6222   65.2577 C.3     1  ZINC000650955167    0.0400
     20 C20        -9.6249    1.6870   66.7537 C.3     1  ZINC000650955167   -0.1600
     21 C21        -8.1045    1.3860   66.6877 C.3     1  ZINC000650955167    0.0800
     22 H22        -7.5428    2.2891   66.4492 H       1  ZINC000650955167    0.0600
     23 O23        -7.6478    0.8190   67.9174 O.3     1  ZINC000650955167   -0.5600
     24 C24        -8.0027    0.3608   65.5388 C.3     1  ZINC000650955167    0.0500
     25 C25        -8.5870   -0.4466   62.4517 C.3     1  ZINC000650955167    0.1400
     26 C26        -9.4816    2.2333   57.2559 C.3     1  ZINC000650955167   -0.1100
     27 C27        -9.7735    3.3630   58.2457 C.3     1  ZINC000650955167   -0.1400
     28 C28        -7.9704    2.1151   57.0480 C.3     1  ZINC000650955167   -0.1500
     29 H29       -13.1465   -2.6603   59.2185 H       1  ZINC000650955167    0.1000
     30 H30       -13.7435   -1.4848   58.0226 H       1  ZINC000650955167    0.0600
     31 H31       -13.5061   -3.1862   57.5565 H       1  ZINC000650955167    0.0600
     32 H32       -11.6743   -3.6910   55.7245 H       1  ZINC000650955167    0.1300
     33 H33       -11.3041   -2.9957   53.3923 H       1  ZINC000650955167    0.1200
     34 H34       -10.9939   -0.6152   52.8505 H       1  ZINC000650955167    0.1200
     35 H35       -11.0535    1.0757   54.6382 H       1  ZINC000650955167    0.1300
     36 H36       -11.8377    1.6170   56.8842 H       1  ZINC000650955167    0.0900
     37 H37       -12.0794    0.3325   58.0925 H       1  ZINC000650955167    0.0800
     38 H38       -10.6543    1.5972   59.7215 H       1  ZINC000650955167    0.4000
     39 H39       -10.1974    2.0375   62.0780 H       1  ZINC000650955167    0.0700
     40 H40       -10.9316    0.4984   62.7012 H       1  ZINC000650955167    0.0900
     41 H41        -8.0611    1.5773   63.2090 H       1  ZINC000650955167    0.0900
     42 H42        -9.7887    2.5646   64.7621 H       1  ZINC000650955167    0.0500
     43 H43       -11.0824    1.3913   65.1562 H       1  ZINC000650955167    0.0900
     44 H44        -9.8090    2.6800   67.1639 H       1  ZINC000650955167    0.0800
     45 H45       -10.1492    0.9248   67.3301 H       1  ZINC000650955167    0.0900
     46 H46        -7.7812    1.3892   68.6869 H       1  ZINC000650955167    0.3800
     47 H47        -7.9735   -0.6502   65.9453 H       1  ZINC000650955167    0.0900
     48 H48        -7.1056    0.5519   64.9497 H       1  ZINC000650955167    0.0700
     49 H49        -9.1108   -1.3285   62.8203 H       1  ZINC000650955167    0.0900
     50 H50        -7.5330   -0.6361   62.2483 H       1  ZINC000650955167    0.0800
     51 H51        -9.9635    2.4516   56.3029 H       1  ZINC000650955167    0.0700
     52 H52        -9.2915    3.1447   59.1986 H       1  ZINC000650955167    0.0600
     53 H53        -9.3867    4.3019   57.8496 H       1  ZINC000650955167    0.0400
     54 H54       -10.8501    3.4471   58.3938 H       1  ZINC000650955167    0.0500
     55 H55        -7.7625    1.3102   56.3429 H       1  ZINC000650955167    0.0600
     56 H56        -7.5837    3.0540   56.6520 H       1  ZINC000650955167    0.0600
     57 H57        -7.4885    1.8967   58.0011 H       1  ZINC000650955167    0.0600
@<TRIPOS>BOND
     1     1     2    1
     2     1    29    1
     3     1    30    1
     4     1    31    1
     5     2     3    1
     6     3     8   ar
     7     3     4   ar
     8     4     5   ar
     9     4    32    1
    10     5     6   ar
    11     5    33    1
    12     6     7   ar
    13     6    34    1
    14     7     8   ar
    15     7    35    1
    16     8     9    1
    17     9    10    1
    18     9    36    1
    19     9    37    1
    20    10    11    1
    21    10    12    1
    22    10    26    1
    23    12    13   am
    24    12    38    1
    25    13    14    2
    26    13    15   am
    27    15    25    1
    28    15    16    1
    29    16    17    1
    30    16    39    1
    31    16    40    1
    32    17    18    1
    33    17    25    1
    34    17    41    1
    35    18    24    1
    36    18    19    1
    37    19    20    1
    38    19    42    1
    39    19    43    1
    40    20    21    1
    41    20    44    1
    42    20    45    1
    43    21    22    1
    44    21    23    1
    45    21    24    1
    46    23    46    1
    47    24    47    1
    48    24    48    1
    49    25    49    1
    50    25    50    1
    51    26    27    1
    52    26    28    1
    53    26    51    1
    54    27    52    1
    55    27    53    1
    56    27    54    1
    57    28    55    1
    58    28    56    1
    59    28    57    1
@<TRIPOS>SUBSTRUCTURE
     1 ZINC000650955167        1 TEMP              0 ****  ****    0 ROOT


##########                                Name:    ZINC000050607728
##########                DOCK_Rotatable_Bonds:                  10
##########                         Heavy_Atoms:                  31
##########                    Molecular_Weight:             416.476
##########                DOCK_Rotatable_Bonds:                  10
##########                       Formal_Charge:          -0.0199995
##########                     HBond_Acceptors:                   6
##########                        HBond_Donors:                   1
##########                         Heavy_Atoms:                  31
##########                          Grid_Score:          -30.158138
##########                     Grid_vdw_energy:          -30.230438
##########                      Grid_es_energy:            0.072301
##########           Internal_energy_repulsive:           14.595241

@<TRIPOS>MOLECULE
ZINC000050607728
 55 57 1 0 0
SMALL
USER_CHARGES


@<TRIPOS>ATOM
      1 C1        -11.2703   -1.4770   51.9494 C.3     1  ZINC000050607728    0.0800
      2 N2        -11.5353   -0.5580   53.0591 N.am    1  ZINC000050607728   -0.6200
      3 C3        -11.8107    0.8554   52.7898 C.3     1  ZINC000050607728    0.0700
      4 C4        -11.5258   -1.0129   54.3278 C.2     1  ZINC000050607728    0.5600
      5 O5        -11.2973   -2.1856   54.5512 O.2     1  ZINC000050607728   -0.5300
      6 C6        -11.7933   -0.0855   55.4476 C.ar    1  ZINC000050607728   -0.1400
      7 C7        -13.1049    0.1594   55.8568 C.ar    1  ZINC000050607728   -0.0800
      8 C8        -13.3476    1.0256   56.9029 C.ar    1  ZINC000050607728   -0.1300
      9 C9        -12.2944    1.6514   57.5455 C.ar    1  ZINC000050607728   -0.0700
     10 C10       -10.9915    1.4134   57.1444 C.ar    1  ZINC000050607728   -0.1100
     11 C11        -9.8503    2.0998   57.8498 C.3     1  ZINC000050607728    0.1100
     12 O12        -9.7120    1.5562   59.1890 O.3     1  ZINC000050607728   -0.3400
     13 C13        -8.9450    0.4632   59.3268 C.2     1  ZINC000050607728    0.4700
     14 O14        -7.9066    0.3729   58.7157 O.2     1  ZINC000050607728   -0.5000
     15 C15        -9.3791   -0.6511   60.2437 C.3     1  ZINC000050607728    0.2000
     16 H16        -8.5136   -1.2544   60.5175 H       1  ZINC000050607728    0.1400
     17 N17        -9.9802   -0.0826   61.4528 N.am    1  ZINC000050607728   -0.7100
     18 C18        -9.2718   -0.0330   62.5982 C.2     1  ZINC000050607728    0.5700
     19 O19        -8.1336   -0.4585   62.6278 O.2     1  ZINC000050607728   -0.5200
     20 C20        -9.8790    0.5393   63.8188 C.ar    1  ZINC000050607728   -0.1400
     21 C21        -9.1392    0.6162   64.9998 C.ar    1  ZINC000050607728   -0.0800
     22 C22        -9.7117    1.1517   66.1351 C.ar    1  ZINC000050607728   -0.1300
     23 C23       -11.0162    1.6116   66.1047 C.ar    1  ZINC000050607728   -0.0900
     24 C24       -11.7552    1.5378   64.9373 C.ar    1  ZINC000050607728   -0.1300
     25 C25       -11.1927    1.0102   63.7934 C.ar    1  ZINC000050607728   -0.0600
     26 C26       -10.3916   -1.5163   59.5385 C.ar    1  ZINC000050607728   -0.1000
     27 C27        -9.9795   -2.6434   58.8525 C.ar    1  ZINC000050607728   -0.1000
     28 C28       -10.9082   -3.4370   58.2056 C.ar    1  ZINC000050607728   -0.1200
     29 C29       -12.2492   -3.1038   58.2451 C.ar    1  ZINC000050607728   -0.1100
     30 C30       -12.6615   -1.9771   58.9318 C.ar    1  ZINC000050607728   -0.1200
     31 C31       -11.7332   -1.1859   59.5824 C.ar    1  ZINC000050607728   -0.0800
     32 C32       -10.7348    0.5449   56.1040 C.ar    1  ZINC000050607728   -0.0400
     33 H33       -10.2004   -1.4965   51.7414 H       1  ZINC000050607728    0.0600
     34 H34       -11.6063   -2.4784   52.2188 H       1  ZINC000050607728    0.0800
     35 H35       -11.8067   -1.1400   51.0625 H       1  ZINC000050607728    0.0700
     36 H36       -12.8710    0.9839   52.5719 H       1  ZINC000050607728    0.0600
     37 H37       -11.5447    1.4504   53.6635 H       1  ZINC000050607728    0.0800
     38 H38       -11.2214    1.1837   51.9335 H       1  ZINC000050607728    0.0700
     39 H39       -13.9281   -0.3280   55.3555 H       1  ZINC000050607728    0.1400
     40 H40       -14.3622    1.2160   57.2207 H       1  ZINC000050607728    0.1400
     41 H41       -12.4898    2.3289   58.3635 H       1  ZINC000050607728    0.1300
     42 H42        -8.9275    1.9350   57.2936 H       1  ZINC000050607728    0.0900
     43 H43       -10.0517    3.1694   57.9108 H       1  ZINC000050607728    0.0900
     44 H44       -10.8881    0.2581   61.4289 H       1  ZINC000050607728    0.4100
     45 H45        -8.1210    0.2569   65.0250 H       1  ZINC000050607728    0.1300
     46 H46        -9.1403    1.2118   67.0496 H       1  ZINC000050607728    0.1300
     47 H47       -11.4598    2.0296   66.9963 H       1  ZINC000050607728    0.1300
     48 H48       -12.7731    1.8981   64.9203 H       1  ZINC000050607728    0.1300
     49 H49       -11.7705    0.9535   62.8828 H       1  ZINC000050607728    0.1400
     50 H50        -8.9318   -2.9038   58.8217 H       1  ZINC000050607728    0.1200
     51 H51       -10.5861   -4.3173   57.6691 H       1  ZINC000050607728    0.1200
     52 H52       -12.9748   -3.7234   57.7391 H       1  ZINC000050607728    0.1200
     53 H53       -13.7092   -1.7165   58.9624 H       1  ZINC000050607728    0.1300
     54 H54       -12.0553   -0.3057   60.1188 H       1  ZINC000050607728    0.1300
     55 H55        -9.7174    0.3597   55.7922 H       1  ZINC000050607728    0.1300
@<TRIPOS>BOND
     1     1     2    1
     2     1    33    1
     3     1    34    1
     4     1    35    1
     5     2     3    1
     6     2     4   am
     7     3    36    1
     8     3    37    1
     9     3    38    1
    10     4     5    2
    11     4     6    1
    12     6    32   ar
    13     6     7   ar
    14     7     8   ar
    15     7    39    1
    16     8     9   ar
    17     8    40    1
    18     9    10   ar
    19     9    41    1
    20    10    11    1
    21    10    32   ar
    22    11    12    1
    23    11    42    1
    24    11    43    1
    25    12    13    1
    26    13    14    2
    27    13    15    1
    28    15    16    1
    29    15    17    1
    30    15    26    1
    31    17    18   am
    32    17    44    1
    33    18    19    2
    34    18    20    1
    35    20    25   ar
    36    20    21   ar
    37    21    22   ar
    38    21    45    1
    39    22    23   ar
    40    22    46    1
    41    23    24   ar
    42    23    47    1
    43    24    25   ar
    44    24    48    1
    45    25    49    1
    46    26    31   ar
    47    26    27   ar
    48    27    28   ar
    49    27    50    1
    50    28    29   ar
    51    28    51    1
    52    29    30   ar
    53    29    52    1
    54    30    31   ar
    55    30    53    1
    56    31    54    1
    57    32    55    1
@<TRIPOS>SUBSTRUCTURE
     1 ZINC000050607728        1 TEMP              0 ****  ****    0 ROOT


##########                                Name:    ZINC000906038034
##########                DOCK_Rotatable_Bonds:                   5
##########                         Heavy_Atoms:                  23
##########                    Molecular_Weight:             387.428
##########                DOCK_Rotatable_Bonds:                   5
##########                       Formal_Charge:         -0.00999987
##########                     HBond_Acceptors:                  12
##########                        HBond_Donors:                   0
##########                         Heavy_Atoms:                  23
##########                          Grid_Score:          -30.156746
##########                     Grid_vdw_energy:          -25.634731
##########                      Grid_es_energy:           -4.522014
##########           Internal_energy_repulsive:            2.684031

@<TRIPOS>MOLECULE
ZINC000906038034
 35 36 1 0 0
SMALL
USER_CHARGES


@<TRIPOS>ATOM
      1 C1        -14.2514   -4.8292   56.5818 C.3     1  ZINC000906038034    0.1000
      2 N2        -13.6012   -3.5328   56.3745 N.pl3   1  ZINC000906038034   -0.3700
      3 C3        -13.8563   -2.6707   55.3665 C.2     1  ZINC000906038034    0.0600
      4 C4        -13.0559   -1.5947   55.5243 C.2     1  ZINC000906038034   -0.2500
      5 C5        -12.2743   -1.8033   56.6794 C.2     1  ZINC000906038034    0.1200
      6 C6        -11.2606   -0.8744   57.2241 C.2     1  ZINC000906038034    0.1500
      7 N7        -10.5551   -1.0723   58.3006 N.2     1  ZINC000906038034   -0.4300
      8 C8         -9.6982   -0.1338   58.6337 C.2     1  ZINC000906038034    0.0600
      9 C9         -8.8242   -0.2456   59.8561 C.3     1  ZINC000906038034   -0.5300
     10 S10        -9.8363   -0.7324   61.2806 S.o2    1  ZINC000906038034    2.4200
     11 O11       -10.8909    0.2082   61.4294 O.2     1  ZINC000906038034   -0.9100
     12 O12       -10.1497   -2.1133   61.1625 O.2     1  ZINC000906038034   -0.9200
     13 C13        -8.6736   -0.5195   62.6567 C.3     1  ZINC000906038034   -0.6100
     14 C14        -9.1108    0.6695   63.5146 C.3     1  ZINC000906038034   -0.4500
     15 S15        -8.0009    0.8267   64.9408 S.o     1  ZINC000906038034    1.3300
     16 O16        -8.1178   -0.3275   65.7614 O.2     1  ZINC000906038034   -0.7600
     17 C17        -8.6695    2.2648   65.8214 C.3     1  ZINC000906038034    0.1200
     18 F18        -9.9929    2.0087   66.1957 F       1  ZINC000906038034   -0.1900
     19 F19        -7.9008    2.5104   66.9643 F       1  ZINC000906038034   -0.1700
     20 F20        -8.6301    3.3844   64.9835 F       1  ZINC000906038034   -0.1600
     21 C21        -9.6495    0.9260   57.8208 C.2     1  ZINC000906038034   -0.2300
     22 S22       -10.8081    0.6744   56.5166 S.3     1  ZINC000906038034    0.1600
     23 N23       -12.6116   -2.9703   57.1907 N.2     1  ZINC000906038034   -0.2400
     24 H24       -15.1388   -4.6958   57.2004 H       1  ZINC000906038034    0.0800
     25 H25       -14.5401   -5.2491   55.6182 H       1  ZINC000906038034    0.0900
     26 H26       -13.5591   -5.5072   57.0808 H       1  ZINC000906038034    0.0900
     27 H27       -14.5743   -2.8166   54.5730 H       1  ZINC000906038034    0.1800
     28 H28       -13.0203   -0.7286   54.8801 H       1  ZINC000906038034    0.1600
     29 H29        -8.0534   -0.9969   59.6843 H       1  ZINC000906038034    0.1500
     30 H30        -8.3545    0.7175   60.0563 H       1  ZINC000906038034    0.1600
     31 H31        -8.6628   -1.4230   63.2664 H       1  ZINC000906038034    0.1500
     32 H32        -7.6742   -0.3353   62.2627 H       1  ZINC000906038034    0.1500
     33 H33        -9.0692    1.5816   62.9194 H       1  ZINC000906038034    0.1600
     34 H34       -10.1309    0.5099   63.8639 H       1  ZINC000906038034    0.1300
     35 H35        -9.0077    1.7864   57.9401 H       1  ZINC000906038034    0.1900
@<TRIPOS>BOND
     1     1     2    1
     2     1    24    1
     3     1    25    1
     4     1    26    1
     5     2    23    1
     6     2     3    1
     7     3     4    2
     8     3    27    1
     9     4     5    1
    10     4    28    1
    11     5     6    1
    12     5    23    2
    13     6    22    1
    14     6     7    2
    15     7     8    1
    16     8     9    1
    17     8    21    2
    18     9    10    1
    19     9    29    1
    20     9    30    1
    21    10    11    2
    22    10    12    2
    23    10    13    1
    24    13    14    1
    25    13    31    1
    26    13    32    1
    27    14    15    1
    28    14    33    1
    29    14    34    1
    30    15    16    2
    31    15    17    1
    32    17    18    1
    33    17    19    1
    34    17    20    1
    35    21    22    1
    36    21    35    1
@<TRIPOS>SUBSTRUCTURE
     1 ZINC000906038034        1 TEMP              0 ****  ****    0 ROOT


##########                                Name:    ZINC000065993627
##########                DOCK_Rotatable_Bonds:                   7
##########                         Heavy_Atoms:                  28
##########                    Molecular_Weight:             382.462
##########                DOCK_Rotatable_Bonds:                   7
##########                       Formal_Charge:          -0.0200002
##########                     HBond_Acceptors:                   7
##########                        HBond_Donors:                   2
##########                         Heavy_Atoms:                  28
##########                          Grid_Score:          -30.150717
##########                     Grid_vdw_energy:          -30.074032
##########                      Grid_es_energy:           -0.076684
##########           Internal_energy_repulsive:           10.312725

@<TRIPOS>MOLECULE
ZINC000065993627
 54 56 1 0 0
SMALL
USER_CHARGES


@<TRIPOS>ATOM
      1 C1         -4.1183    2.6825   56.8102 C.3     1  ZINC000065993627   -0.1200
      2 C2         -4.9480    3.0903   55.6202 C.ar    1  ZINC000065993627   -0.0700
      3 C3         -4.3859    3.1049   54.3593 C.ar    1  ZINC000065993627   -0.1800
      4 C4         -5.1507    3.4808   53.2624 C.ar    1  ZINC000065993627    0.2000
      5 N5         -4.5814    3.4953   51.9844 N.pl3   1  ZINC000065993627   -0.6400
      6 C6         -4.0901    4.7528   51.4156 C.3     1  ZINC000065993627    0.1000
      7 C7         -4.4763    2.2530   51.2151 C.3     1  ZINC000065993627    0.0900
      8 C8         -6.4804    3.8418   53.4343 C.ar    1  ZINC000065993627   -0.1800
      9 C9         -7.0422    3.8270   54.6958 C.ar    1  ZINC000065993627   -0.0800
     10 C10        -6.2793    3.4459   55.7910 C.ar    1  ZINC000065993627    0.1100
     11 N11        -6.8500    3.4306   57.0715 N.am    1  ZINC000065993627   -0.6800
     12 C12        -7.6726    2.4252   57.4307 C.2     1  ZINC000065993627    0.7000
     13 O13        -7.9198    1.5314   56.6442 O.2     1  ZINC000065993627   -0.5700
     14 N14        -8.2212    2.4105   58.6616 N.am    1  ZINC000065993627   -0.7400
     15 C15        -9.1139    1.3167   59.0527 C.3     1  ZINC000065993627    0.2100
     16 H16        -8.6962    0.3683   58.7149 H       1  ZINC000065993627    0.1000
     17 C17       -10.4877    1.5258   58.4123 C.3     1  ZINC000065993627   -0.1600
     18 C18        -9.2569    1.2968   60.5528 C.ar    1  ZINC000065993627   -0.1200
     19 C19        -8.9274    0.1565   61.2622 C.ar    1  ZINC000065993627   -0.0800
     20 C20        -9.0575    0.1350   62.6371 C.ar    1  ZINC000065993627   -0.1500
     21 C21        -9.5196    1.2602   63.3069 C.ar    1  ZINC000065993627    0.1800
     22 N22        -9.6521    1.2419   64.7000 N.am    1  ZINC000065993627   -0.5700
     23 C23       -10.8458    1.6593   65.4513 C.3     1  ZINC000065993627    0.0600
     24 C24       -10.4495    1.4359   66.9235 C.3     1  ZINC000065993627    0.0400
     25 O25        -9.0884    0.9216   66.8483 O.3     1  ZINC000065993627   -0.3200
     26 C26        -8.7141    0.8360   65.5667 C.2     1  ZINC000065993627    0.6400
     27 O27        -7.6204    0.4354   65.2207 O.2     1  ZINC000065993627   -0.5000
     28 C28        -9.8497    2.4038   62.5916 C.ar    1  ZINC000065993627   -0.1500
     29 C29        -9.7121    2.4207   61.2174 C.ar    1  ZINC000065993627   -0.0800
     30 H30        -4.1978    1.6053   56.9566 H       1  ZINC000065993627    0.0700
     31 H31        -3.0761    2.9495   56.6352 H       1  ZINC000065993627    0.0700
     32 H32        -4.4809    3.1977   57.6997 H       1  ZINC000065993627    0.0600
     33 H33        -3.3515    2.8245   54.2258 H       1  ZINC000065993627    0.1200
     34 H34        -3.0427    4.8888   51.6850 H       1  ZINC000065993627    0.0500
     35 H35        -4.1851    4.7223   50.3302 H       1  ZINC000065993627    0.0700
     36 H36        -4.6771    5.5831   51.8084 H       1  ZINC000065993627    0.0700
     37 H37        -4.9700    1.4468   51.7577 H       1  ZINC000065993627    0.0800
     38 H38        -4.9555    2.3847   50.2451 H       1  ZINC000065993627    0.0500
     39 H39        -3.4253    2.0031   51.0702 H       1  ZINC000065993627    0.0500
     40 H40        -7.0752    4.1344   52.5816 H       1  ZINC000065993627    0.1300
     41 H41        -8.0765    4.1078   54.8296 H       1  ZINC000065993627    0.1500
     42 H42        -6.6528    4.1435   57.6990 H       1  ZINC000065993627    0.4000
     43 H43        -8.0250    3.1240   59.2887 H       1  ZINC000065993627    0.4000
     44 H44       -10.3842    1.5402   57.3273 H       1  ZINC000065993627    0.0700
     45 H45       -11.1519    0.7121   58.7032 H       1  ZINC000065993627    0.0700
     46 H46       -10.9055    2.4743   58.7500 H       1  ZINC000065993627    0.0600
     47 H47        -8.5683   -0.7185   60.7406 H       1  ZINC000065993627    0.1300
     48 H48        -8.8003   -0.7559   63.1906 H       1  ZINC000065993627    0.1600
     49 H49       -11.0645    2.7115   65.2691 H       1  ZINC000065993627    0.1000
     50 H50       -11.7014    1.0381   65.1866 H       1  ZINC000065993627    0.1000
     51 H51       -10.4725    2.3773   67.4725 H       1  ZINC000065993627    0.1100
     52 H52       -11.1093    0.7043   67.3900 H       1  ZINC000065993627    0.1100
     53 H53       -10.2098    3.2803   63.1096 H       1  ZINC000065993627    0.1300
     54 H54        -9.9684    3.3099   60.6606 H       1  ZINC000065993627    0.1300
@<TRIPOS>BOND
     1     1     2    1
     2     1    30    1
     3     1    31    1
     4     1    32    1
     5     2    10   ar
     6     2     3   ar
     7     3     4   ar
     8     3    33    1
     9     4     5    1
    10     4     8   ar
    11     5     6    1
    12     5     7    1
    13     6    34    1
    14     6    35    1
    15     6    36    1
    16     7    37    1
    17     7    38    1
    18     7    39    1
    19     8     9   ar
    20     8    40    1
    21     9    10   ar
    22     9    41    1
    23    10    11    1
    24    11    12   am
    25    11    42    1
    26    12    13    2
    27    12    14   am
    28    14    15    1
    29    14    43    1
    30    15    16    1
    31    15    17    1
    32    15    18    1
    33    17    44    1
    34    17    45    1
    35    17    46    1
    36    18    29   ar
    37    18    19   ar
    38    19    20   ar
    39    19    47    1
    40    20    21   ar
    41    20    48    1
    42    21    22    1
    43    21    28   ar
    44    22    26   am
    45    22    23    1
    46    23    24    1
    47    23    49    1
    48    23    50    1
    49    24    25    1
    50    24    51    1
    51    24    52    1
    52    25    26    1
    53    26    27    2
    54    28    29   ar
    55    28    53    1
    56    29    54    1
@<TRIPOS>SUBSTRUCTURE
     1 ZINC000065993627        1 TEMP              0 ****  ****    0 ROOT


##########                                Name:    ZINC000863216249
##########                DOCK_Rotatable_Bonds:                   5
##########                         Heavy_Atoms:                  23
##########                    Molecular_Weight:             396.351
##########                DOCK_Rotatable_Bonds:                   5
##########                       Formal_Charge:         -0.00999944
##########                     HBond_Acceptors:                   5
##########                        HBond_Donors:                   1
##########                         Heavy_Atoms:                  23
##########                          Grid_Score:          -30.141825
##########                     Grid_vdw_energy:          -28.430162
##########                      Grid_es_energy:           -1.711663
##########           Internal_energy_repulsive:           22.839060

@<TRIPOS>MOLECULE
ZINC000863216249
 45 48 1 0 0
SMALL
USER_CHARGES


@<TRIPOS>ATOM
      1 S1        -15.0353    0.0455   62.7243 S.2     1  ZINC000863216249   -0.5900
      2 C2        -13.9721   -0.7755   61.6630 C.2     1  ZINC000863216249    0.5600
      3 N3        -14.4634   -1.6356   60.7490 N.am    1  ZINC000863216249   -0.6800
      4 C4        -15.9068   -1.8724   60.6677 C.3     1  ZINC000863216249    0.1200
      5 C5        -16.1779   -3.0542   59.7344 C.3     1  ZINC000863216249    0.0400
      6 N6        -15.5686   -2.7927   58.4236 N.3     1  ZINC000863216249   -0.5300
      7 C7        -16.3226   -1.7678   57.6870 C.3     1  ZINC000863216249    0.0000
      8 C8        -15.6213   -1.4839   56.3561 C.3     1  ZINC000863216249    0.0600
      9 O9        -15.5003   -2.7025   55.6173 O.3     1  ZINC000863216249   -0.3800
     10 C10       -14.7709   -3.7226   56.3049 C.3     1  ZINC000863216249    0.0600
     11 C11       -15.4636   -4.0291   57.6353 C.3     1  ZINC000863216249    0.0200
     12 N12       -12.6441   -0.5576   61.7379 N.am    1  ZINC000863216249   -0.5100
     13 C13       -11.9930    0.3520   62.6873 C.3     1  ZINC000863216249    0.1200
     14 C14       -10.4975    0.2453   62.3729 C.3     1  ZINC000863216249   -0.1100
     15 C15        -9.5746    1.4543   62.4646 C.3     1  ZINC000863216249   -0.1500
     16 C16        -9.4444    0.3087   63.4724 C.3     1  ZINC000863216249   -0.1500
     17 C17       -10.4011   -0.7417   61.2385 C.ar    1  ZINC000863216249   -0.0700
     18 C18        -9.3121   -1.2297   60.5423 C.ar    1  ZINC000863216249   -0.0800
     19 C19        -9.4916   -2.1463   59.5232 C.ar    1  ZINC000863216249   -0.1000
     20 C20       -10.7665   -2.5755   59.2003 C.ar    1  ZINC000863216249   -0.0700
     21 Br21      -11.0145   -3.8298   57.8070 Br      1  ZINC000863216249   -0.0400
     22 C22       -11.8574   -2.0913   59.8923 C.ar    1  ZINC000863216249   -0.0900
     23 C23       -11.6839   -1.1699   60.9258 C.ar    1  ZINC000863216249    0.1400
     24 H24       -13.8612   -2.0978   60.1451 H       1  ZINC000863216249    0.4000
     25 H25       -16.2947   -2.0976   61.6611 H       1  ZINC000863216249    0.0900
     26 H26       -16.3998   -0.9816   60.2785 H       1  ZINC000863216249    0.1000
     27 H27       -15.7473   -3.9601   60.1610 H       1  ZINC000863216249    0.0900
     28 H28       -17.2536   -3.1841   59.6157 H       1  ZINC000863216249    0.0400
     29 H29       -17.3339   -2.1270   57.4963 H       1  ZINC000863216249    0.0500
     30 H30       -16.3660   -0.8530   58.2780 H       1  ZINC000863216249    0.1000
     31 H31       -16.2075   -0.7666   55.7817 H       1  ZINC000863216249    0.1000
     32 H32       -14.6295   -1.0742   56.5474 H       1  ZINC000863216249    0.0600
     33 H33       -14.7419   -4.6243   55.6933 H       1  ZINC000863216249    0.1000
     34 H34       -13.7544   -3.3780   56.4947 H       1  ZINC000863216249    0.0600
     35 H35       -14.8799   -4.7650   58.1884 H       1  ZINC000863216249    0.0900
     36 H36       -16.4611   -4.4244   57.4437 H       1  ZINC000863216249    0.0500
     37 H37       -12.3409    1.3734   62.5334 H       1  ZINC000863216249    0.0900
     38 H38       -12.1886    0.0343   63.7116 H       1  ZINC000863216249    0.0900
     39 H39        -8.7950    1.5512   61.7089 H       1  ZINC000863216249    0.1100
     40 H40       -10.0050    2.3907   62.8196 H       1  ZINC000863216249    0.1100
     41 H41        -9.7893    0.4917   64.4901 H       1  ZINC000863216249    0.1100
     42 H42        -8.5793   -0.3478   63.3795 H       1  ZINC000863216249    0.1100
     43 H43        -8.3173   -0.8937   60.7949 H       1  ZINC000863216249    0.1400
     44 H44        -8.6387   -2.5260   58.9802 H       1  ZINC000863216249    0.1400
     45 H45       -12.8503   -2.4300   59.6354 H       1  ZINC000863216249    0.1900
@<TRIPOS>BOND
     1     1     2    2
     2     2     3   am
     3     2    12   am
     4     3     4    1
     5     3    24    1
     6     4     5    1
     7     4    25    1
     8     4    26    1
     9     5     6    1
    10     5    27    1
    11     5    28    1
    12     6    11    1
    13     6     7    1
    14     7     8    1
    15     7    29    1
    16     7    30    1
    17     8     9    1
    18     8    31    1
    19     8    32    1
    20     9    10    1
    21    10    11    1
    22    10    33    1
    23    10    34    1
    24    11    35    1
    25    11    36    1
    26    12    23    1
    27    12    13    1
    28    13    14    1
    29    13    37    1
    30    13    38    1
    31    14    16    1
    32    14    15    1
    33    14    17    1
    34    15    16    1
    35    15    39    1
    36    15    40    1
    37    16    41    1
    38    16    42    1
    39    17    23   ar
    40    17    18   ar
    41    18    19   ar
    42    18    43    1
    43    19    20   ar
    44    19    44    1
    45    20    21    1
    46    20    22   ar
    47    22    23   ar
    48    22    45    1
@<TRIPOS>SUBSTRUCTURE
     1 ZINC000863216249        1 TEMP              0 ****  ****    0 ROOT


##########                                Name:    ZINC001579482641
##########                DOCK_Rotatable_Bonds:                   5
##########                         Heavy_Atoms:                  26
##########                    Molecular_Weight:             355.359
##########                DOCK_Rotatable_Bonds:                   5
##########                       Formal_Charge:                0.05
##########                     HBond_Acceptors:                  11
##########                        HBond_Donors:                   1
##########                         Heavy_Atoms:                  26
##########                          Grid_Score:          -30.141783
##########                     Grid_vdw_energy:          -28.759743
##########                      Grid_es_energy:           -1.382040
##########           Internal_energy_repulsive:           10.848013

@<TRIPOS>MOLECULE
ZINC001579482641
 43 46 1 0 0
SMALL
USER_CHARGES


@<TRIPOS>ATOM
      1 C1        -11.4109   -1.1058   53.2255 C.3     1  ZINC001579482641    0.0300
      2 O2        -10.6772    0.0367   52.7108 O.3     1  ZINC001579482641   -0.3300
      3 C3         -9.4079   -0.1797   52.3142 C.2     1  ZINC001579482641    0.5300
      4 O4         -9.1306   -1.1810   51.6847 O.2     1  ZINC001579482641   -0.4900
      5 C5         -8.3534    0.8007   52.6449 C.ar    1  ZINC001579482641    0.0900
      6 C6         -8.4032    1.4818   53.8623 C.ar    1  ZINC001579482641   -0.0800
      7 C7         -7.4136    2.3986   54.1672 C.ar    1  ZINC001579482641   -0.1200
      8 C8         -6.3952    2.6106   53.2410 C.ar    1  ZINC001579482641    0.1100
      9 N9         -5.3815    3.5213   53.5061 N.3     1  ZINC001579482641   -0.4600
     10 C10        -5.9344    4.8793   53.7427 C.3     1  ZINC001579482641    0.0400
     11 C11        -4.7969    5.5961   54.5127 C.3     1  ZINC001579482641   -0.1100
     12 C12        -4.2369    4.4780   55.4218 C.3     1  ZINC001579482641   -0.0100
     13 H13        -4.6743    4.5458   56.4178 H       1  ZINC001579482641    0.0900
     14 C14        -2.7352    4.5733   55.5032 C.2     1  ZINC001579482641    0.1800
     15 N15        -1.9696    5.3521   54.7885 N.2     1  ZINC001579482641   -0.2600
     16 N16        -0.7402    5.1743   55.1211 N.2     1  ZINC001579482641   -0.2900
     17 C17        -0.6656    4.2739   56.0631 C.2     1  ZINC001579482641    0.1500
     18 N18        -1.9299    3.8704   56.3360 N.pl3   1  ZINC001579482641   -0.4800
     19 C19        -2.3421    2.8709   57.3247 C.3     1  ZINC001579482641    0.0700
     20 C20        -4.6551    3.1605   54.7430 C.3     1  ZINC001579482641    0.0600
     21 C21        -6.4074    1.8898   52.0347 C.ar    1  ZINC001579482641    0.2300
     22 C22        -5.3293    2.1049   51.0384 C.2     1  ZINC001579482641    0.2100
     23 N23        -5.4173    2.7973   49.9199 N.2     1  ZINC001579482641   -0.2600
     24 N24        -4.2707    2.7466   49.3337 N.pl3   1  ZINC001579482641   -0.2300
     25 N25        -3.4593    2.0444   50.0446 N.2     1  ZINC001579482641   -0.0500
     26 N26        -4.0741    1.6378   51.1032 N.2     1  ZINC001579482641   -0.2000
     27 N27        -7.3674    1.0186   51.7825 N.ar    1  ZINC001579482641   -0.4000
     28 H28       -10.8952   -1.5052   54.0989 H       1  ZINC001579482641    0.0700
     29 H29       -12.4165   -0.7944   53.5082 H       1  ZINC001579482641    0.1100
     30 H30       -11.4716   -1.8753   52.4560 H       1  ZINC001579482641    0.0700
     31 H31        -9.2069    1.2950   54.5592 H       1  ZINC001579482641    0.1600
     32 H32        -7.4303    2.9385   55.1025 H       1  ZINC001579482641    0.1600
     33 H33        -6.1357    5.3829   52.7971 H       1  ZINC001579482641    0.1000
     34 H34        -6.8372    4.8265   54.3513 H       1  ZINC001579482641    0.0600
     35 H35        -4.0309    5.9536   53.8245 H       1  ZINC001579482641    0.1000
     36 H36        -5.1934    6.4169   55.1104 H       1  ZINC001579482641    0.0800
     37 H37         0.2364    3.9191   56.5395 H       1  ZINC001579482641    0.2200
     38 H38        -2.5256    3.3602   58.2812 H       1  ZINC001579482641    0.0800
     39 H39        -3.2547    2.3802   56.9866 H       1  ZINC001579482641    0.0900
     40 H40        -1.5525    2.1287   57.4418 H       1  ZINC001579482641    0.0900
     41 H41        -5.3086    2.5927   55.4052 H       1  ZINC001579482641    0.0600
     42 H42        -3.7708    2.5730   54.4963 H       1  ZINC001579482641    0.1000
     43 H43        -4.0534    3.1709   48.4888 H       1  ZINC001579482641    0.4800
@<TRIPOS>BOND
     1     1     2    1
     2     1    28    1
     3     1    29    1
     4     1    30    1
     5     2     3    1
     6     3     4    2
     7     3     5    1
     8     5    27   ar
     9     5     6   ar
    10     6     7   ar
    11     6    31    1
    12     7     8   ar
    13     7    32    1
    14     8     9    1
    15     8    21   ar
    16     9    20    1
    17     9    10    1
    18    10    11    1
    19    10    33    1
    20    10    34    1
    21    11    12    1
    22    11    35    1
    23    11    36    1
    24    12    13    1
    25    12    14    1
    26    12    20    1
    27    14    18    1
    28    14    15    2
    29    15    16    1
    30    16    17    2
    31    17    18    1
    32    17    37    1
    33    18    19    1
    34    19    38    1
    35    19    39    1
    36    19    40    1
    37    20    41    1
    38    20    42    1
    39    21    22    1
    40    21    27   ar
    41    22    26    1
    42    22    23    2
    43    23    24    1
    44    24    25    1
    45    24    43    1
    46    25    26    2
@<TRIPOS>SUBSTRUCTURE
     1 ZINC001579482641        1 TEMP              0 ****  ****    0 ROOT


##########                                Name:    ZINC000548281822
##########                DOCK_Rotatable_Bonds:                   6
##########                         Heavy_Atoms:                  24
##########                    Molecular_Weight:             332.406
##########                DOCK_Rotatable_Bonds:                   6
##########                       Formal_Charge:        -5.58794e-08
##########                     HBond_Acceptors:                   8
##########                        HBond_Donors:                   2
##########                         Heavy_Atoms:                  24
##########                          Grid_Score:          -30.118910
##########                     Grid_vdw_energy:          -29.154119
##########                      Grid_es_energy:           -0.964790
##########           Internal_energy_repulsive:            6.185769

@<TRIPOS>MOLECULE
ZINC000548281822
 48 50 1 0 0
SMALL
USER_CHARGES


@<TRIPOS>ATOM
      1 C1         -9.7552    2.0512   64.8838 C.3     1  ZINC000548281822   -0.1700
      2 C2         -8.7495    0.9517   64.5361 C.3     1  ZINC000548281822    0.2600
      3 H3         -9.1612   -0.0184   64.8143 H       1  ZINC000548281822    0.1400
      4 N4         -8.4808    0.9734   63.0962 N.am    1  ZINC000548281822   -0.7400
      5 C5         -9.3167    0.3463   62.2451 C.2     1  ZINC000548281822    0.7100
      6 O6        -10.2931   -0.2388   62.6725 O.2     1  ZINC000548281822   -0.5700
      7 N7         -9.0703    0.3675   60.9202 N.am    1  ZINC000548281822   -0.7400
      8 C8         -9.9799   -0.3127   59.9950 C.3     1  ZINC000548281822    0.1600
      9 H9        -11.0066   -0.1955   60.3418 H       1  ZINC000548281822    0.1000
     10 C10        -9.8393    0.2983   58.5977 C.3     1  ZINC000548281822   -0.1400
     11 C11       -10.9467   -0.2447   57.6880 C.3     1  ZINC000548281822    0.1100
     12 N12       -10.9657   -1.7059   57.7882 N.pl3   1  ZINC000548281822   -0.4600
     13 C13       -11.5510   -2.5938   56.9356 C.2     1  ZINC000548281822   -0.0500
     14 C14       -11.3078   -3.8243   57.4308 C.2     1  ZINC000548281822   -0.0300
     15 N15       -10.5915   -3.6855   58.5583 N.2     1  ZINC000548281822   -0.4900
     16 C16       -10.3828   -2.4207   58.7797 C.2     1  ZINC000548281822    0.2100
     17 C17        -9.6271   -1.8042   59.9335 C.3     1  ZINC000548281822   -0.0500
     18 C18        -7.4664    1.1879   65.2903 C.2     1  ZINC000548281822    0.1700
     19 N19        -6.4163    1.8441   64.8588 N.2     1  ZINC000548281822   -0.4600
     20 C20        -5.5225    1.7974   65.8627 C.2     1  ZINC000548281822    0.1900
     21 C21        -4.1455    2.4097   65.8601 C.3     1  ZINC000548281822    0.0200
     22 C22        -4.2324    3.8620   66.3338 C.3     1  ZINC000548281822   -0.1400
     23 C23        -3.2343    1.6198   66.8018 C.3     1  ZINC000548281822   -0.1400
     24 C24        -3.5719    2.3691   64.4424 C.3     1  ZINC000548281822   -0.1400
     25 N25        -6.0644    1.1274   66.8354 N.2     1  ZINC000548281822   -0.3700
     26 O26        -7.1835    0.7733   66.5289 O.3     1  ZINC000548281822    0.0800
     27 H27        -9.3436    3.0214   64.6056 H       1  ZINC000548281822    0.0700
     28 H28       -10.6833    1.8803   64.3384 H       1  ZINC000548281822    0.0900
     29 H29        -9.9552    2.0350   65.9552 H       1  ZINC000548281822    0.0800
     30 H30        -7.7012    1.4392   62.7553 H       1  ZINC000548281822    0.4000
     31 H31        -8.2907    0.8333   60.5793 H       1  ZINC000548281822    0.4000
     32 H32        -9.9240    1.3828   58.6652 H       1  ZINC000548281822    0.1000
     33 H33        -8.8664    0.0351   58.1824 H       1  ZINC000548281822    0.0800
     34 H34       -11.9094    0.1559   58.0054 H       1  ZINC000548281822    0.0900
     35 H35       -10.7489    0.0481   56.6568 H       1  ZINC000548281822    0.1000
     36 H36       -12.1031   -2.3577   56.0378 H       1  ZINC000548281822    0.1800
     37 H37       -11.6330   -4.7583   56.9970 H       1  ZINC000548281822    0.1700
     38 H38        -8.5550   -1.9219   59.7755 H       1  ZINC000548281822    0.0900
     39 H39        -9.9177   -2.2902   60.8648 H       1  ZINC000548281822    0.1000
     40 H40        -4.6411    3.8909   67.3438 H       1  ZINC000548281822    0.0600
     41 H41        -3.2364    4.3050   66.3319 H       1  ZINC000548281822    0.0700
     42 H42        -4.8816    4.4248   65.6628 H       1  ZINC000548281822    0.0700
     43 H43        -3.1725    0.5853   66.4643 H       1  ZINC000548281822    0.0600
     44 H44        -2.2385    2.0628   66.7999 H       1  ZINC000548281822    0.0700
     45 H45        -3.6430    1.6488   67.8119 H       1  ZINC000548281822    0.0600
     46 H46        -4.2210    2.9319   63.7714 H       1  ZINC000548281822    0.0700
     47 H47        -2.5760    2.8121   64.4405 H       1  ZINC000548281822    0.0700
     48 H48        -3.5100    1.3345   64.1049 H       1  ZINC000548281822    0.0600
@<TRIPOS>BOND
     1     1     2    1
     2     1    27    1
     3     1    28    1
     4     1    29    1
     5     2     3    1
     6     2     4    1
     7     2    18    1
     8     4     5   am
     9     4    30    1
    10     5     6    2
    11     5     7   am
    12     7     8    1
    13     7    31    1
    14     8     9    1
    15     8    17    1
    16     8    10    1
    17    10    11    1
    18    10    32    1
    19    10    33    1
    20    11    12    1
    21    11    34    1
    22    11    35    1
    23    12    16    1
    24    12    13    1
    25    13    14    2
    26    13    36    1
    27    14    15    1
    28    14    37    1
    29    15    16    2
    30    16    17    1
    31    17    38    1
    32    17    39    1
    33    18    26    1
    34    18    19    2
    35    19    20    1
    36    20    21    1
    37    20    25    2
    38    21    22    1
    39    21    23    1
    40    21    24    1
    41    22    40    1
    42    22    41    1
    43    22    42    1
    44    23    43    1
    45    23    44    1
    46    23    45    1
    47    24    46    1
    48    24    47    1
    49    24    48    1
    50    25    26    1
@<TRIPOS>SUBSTRUCTURE
     1 ZINC000548281822        1 TEMP              0 ****  ****    0 ROOT


##########                                Name:    ZINC000970996691
##########                DOCK_Rotatable_Bonds:                   7
##########                         Heavy_Atoms:                  24
##########                    Molecular_Weight:             334.462
##########                DOCK_Rotatable_Bonds:                   7
##########                       Formal_Charge:          -0.0199999
##########                     HBond_Acceptors:                   6
##########                        HBond_Donors:                   0
##########                         Heavy_Atoms:                  24
##########                          Grid_Score:          -30.113106
##########                     Grid_vdw_energy:          -30.834126
##########                      Grid_es_energy:            0.721020
##########           Internal_energy_repulsive:           17.067591

@<TRIPOS>MOLECULE
ZINC000970996691
 54 56 1 0 0
SMALL
USER_CHARGES


@<TRIPOS>ATOM
      1 C1        -12.3138   -0.9511   53.0904 C.3     1  ZINC000970996691   -0.1500
      2 C2        -11.1826   -0.1449   52.4495 C.3     1  ZINC000970996691   -0.1200
      3 C3         -9.8391   -0.6179   53.0085 C.3     1  ZINC000970996691   -0.0300
      4 C4         -8.7213    0.1346   52.3336 C.2     1  ZINC000970996691    0.1800
      5 N5         -8.7498    1.3837   51.9353 N.2     1  ZINC000970996691   -0.4700
      6 C6         -7.5408    1.6190   51.3951 C.2     1  ZINC000970996691    0.1800
      7 C7         -7.0714    2.9171   50.7904 C.3     1  ZINC000970996691    0.1500
      8 N8         -6.0763    3.5377   51.6749 N.3     1  ZINC000970996691   -0.5200
      9 C9         -6.5333    3.5268   53.0710 C.3     1  ZINC000970996691    0.0200
     10 C10        -4.7705    2.8775   51.5433 C.3     1  ZINC000970996691    0.0700
     11 H11        -4.8009    1.8701   51.9583 H       1  ZINC000970996691    0.0600
     12 C12        -4.3051    2.8556   50.0634 C.3     1  ZINC000970996691   -0.1300
     13 C13        -2.7678    2.7982   50.1853 C.3     1  ZINC000970996691    0.1000
     14 N14        -2.4156    3.3197   51.5140 N.am    1  ZINC000970996691   -0.6200
     15 C15        -1.1678    3.4173   52.0142 C.2     1  ZINC000970996691    0.5300
     16 O16        -0.9941    3.8651   53.1278 O.2     1  ZINC000970996691   -0.5300
     17 C17         0.0115    2.9698   51.1896 C.3     1  ZINC000970996691   -0.1000
     18 C18         1.0424    4.0981   51.1196 C.3     1  ZINC000970996691   -0.1100
     19 C19         2.2398    3.6438   50.2824 C.3     1  ZINC000970996691   -0.1200
     20 C20         2.8756    2.4114   50.9287 C.3     1  ZINC000970996691   -0.1200
     21 C21         1.8447    1.2830   50.9987 C.3     1  ZINC000970996691   -0.1200
     22 C22         0.6474    1.7373   51.8359 C.3     1  ZINC000970996691   -0.1000
     23 C23        -3.6533    3.7190   52.2092 C.3     1  ZINC000970996691    0.1200
     24 N24        -6.8516    0.5215   51.4905 N.2     1  ZINC000970996691   -0.3800
     25 O25        -7.5096   -0.3417   52.0320 O.3     1  ZINC000970996691    0.0800
     26 H26       -12.1789   -2.0090   52.8654 H       1  ZINC000970996691    0.0600
     27 H27       -12.2978   -0.8044   54.1705 H       1  ZINC000970996691    0.0600
     28 H28       -13.2710   -0.6142   52.6922 H       1  ZINC000970996691    0.0600
     29 H29       -11.1986   -0.2915   51.3694 H       1  ZINC000970996691    0.0700
     30 H30       -11.3175    0.9130   52.6745 H       1  ZINC000970996691    0.0700
     31 H31        -9.8064   -0.4314   54.0819 H       1  ZINC000970996691    0.1100
     32 H32        -9.7233   -1.6853   52.8214 H       1  ZINC000970996691    0.1000
     33 H33        -6.6214    2.7227   49.8169 H       1  ZINC000970996691    0.0700
     34 H34        -7.9206    3.5899   50.6703 H       1  ZINC000970996691    0.1100
     35 H35        -6.6936    2.4978   53.3928 H       1  ZINC000970996691    0.0300
     36 H36        -5.7779    3.9921   53.7042 H       1  ZINC000970996691    0.0800
     37 H37        -7.4676    4.0825   53.1518 H       1  ZINC000970996691    0.0700
     38 H38        -4.6848    1.9706   49.5528 H       1  ZINC000970996691    0.0800
     39 H39        -4.6175    3.7635   49.5473 H       1  ZINC000970996691    0.0900
     40 H40        -2.4265    1.7676   50.0891 H       1  ZINC000970996691    0.0700
     41 H41        -2.3112    3.4158   49.4118 H       1  ZINC000970996691    0.0700
     42 H42        -0.3230    2.7203   50.1827 H       1  ZINC000970996691    0.0900
     43 H43         0.5894    4.9761   50.6591 H       1  ZINC000970996691    0.0700
     44 H44         1.3769    4.3477   52.1265 H       1  ZINC000970996691    0.0700
     45 H45         1.9053    3.3942   49.2755 H       1  ZINC000970996691    0.0600
     46 H46         2.9742    4.4477   50.2326 H       1  ZINC000970996691    0.0700
     47 H47         3.7287    2.0877   50.3323 H       1  ZINC000970996691    0.0600
     48 H48         3.2101    2.6609   51.9357 H       1  ZINC000970996691    0.0600
     49 H49         1.5103    1.0334   49.9918 H       1  ZINC000970996691    0.0600
     50 H50         2.2978    0.4050   51.4591 H       1  ZINC000970996691    0.0700
     51 H51         0.9819    1.9869   52.8428 H       1  ZINC000970996691    0.0800
     52 H52        -0.0871    0.9334   51.8857 H       1  ZINC000970996691    0.0600
     53 H53        -3.8433    4.7826   52.0649 H       1  ZINC000970996691    0.0800
     54 H54        -3.5837    3.4860   53.2718 H       1  ZINC000970996691    0.0800
@<TRIPOS>BOND
     1     1     2    1
     2     1    26    1
     3     1    27    1
     4     1    28    1
     5     2     3    1
     6     2    29    1
     7     2    30    1
     8     3     4    1
     9     3    31    1
    10     3    32    1
    11     4    25    1
    12     4     5    2
    13     5     6    1
    14     6     7    1
    15     6    24    2
    16     7     8    1
    17     7    33    1
    18     7    34    1
    19     8     9    1
    20     8    10    1
    21     9    35    1
    22     9    36    1
    23     9    37    1
    24    10    11    1
    25    10    23    1
    26    10    12    1
    27    12    13    1
    28    12    38    1
    29    12    39    1
    30    13    14    1
    31    13    40    1
    32    13    41    1
    33    14    15   am
    34    14    23    1
    35    15    16    2
    36    15    17    1
    37    17    22    1
    38    17    18    1
    39    17    42    1
    40    18    19    1
    41    18    43    1
    42    18    44    1
    43    19    20    1
    44    19    45    1
    45    19    46    1
    46    20    21    1
    47    20    47    1
    48    20    48    1
    49    21    22    1
    50    21    49    1
    51    21    50    1
    52    22    51    1
    53    22    52    1
    54    23    53    1
    55    23    54    1
    56    24    25    1
@<TRIPOS>SUBSTRUCTURE
     1 ZINC000970996691        1 TEMP              0 ****  ****    0 ROOT


##########                                Name:    ZINC000489403631
##########                DOCK_Rotatable_Bonds:                   7
##########                         Heavy_Atoms:                  28
##########                    Molecular_Weight:             381.391
##########                DOCK_Rotatable_Bonds:                   7
##########                       Formal_Charge:          -0.0300003
##########                     HBond_Acceptors:                   9
##########                        HBond_Donors:                   1
##########                         Heavy_Atoms:                  28
##########                          Grid_Score:          -30.103415
##########                     Grid_vdw_energy:          -25.569679
##########                      Grid_es_energy:           -4.533735
##########           Internal_energy_repulsive:           13.087551

@<TRIPOS>MOLECULE
ZINC000489403631
 47 49 1 0 0
SMALL
USER_CHARGES


@<TRIPOS>ATOM
      1 C1         -9.3669   -1.7639   59.9553 C.3     1  ZINC000489403631   -0.1100
      2 C2         -9.9731   -0.4968   60.5009 C.ar    1  ZINC000489403631   -0.0800
      3 C3         -9.3798    0.1488   61.5672 C.ar    1  ZINC000489403631   -0.0900
      4 C4         -9.9386    1.3166   62.0700 C.ar    1  ZINC000489403631    0.1200
      5 N5         -9.3366    1.9722   63.1517 N.am    1  ZINC000489403631   -0.6600
      6 C6         -9.7829    1.7546   64.4047 C.2     1  ZINC000489403631    0.5100
      7 O7        -10.7057    0.9910   64.5957 O.2     1  ZINC000489403631   -0.4600
      8 C8         -9.1352    2.4599   65.5684 C.3     1  ZINC000489403631    0.1700
      9 C9         -8.8952    3.9269   65.2060 C.3     1  ZINC000489403631   -0.1700
     10 C10       -10.0543    2.3799   66.7889 C.3     1  ZINC000489403631   -0.1700
     11 N11        -7.8554    1.8177   65.8779 N.pl3   1  ZINC000489403631   -0.3400
     12 C12        -6.6528    2.1579   65.3690 C.2     1  ZINC000489403631    0.1500
     13 C13        -5.7285    1.3267   65.9037 C.2     1  ZINC000489403631   -0.1900
     14 N14        -4.2753    1.3445   65.6231 N.pl3   1  ZINC000489403631    0.0700
     15 O15        -3.5006    0.7981   66.3878 O.2     1  ZINC000489403631   -0.1700
     16 O16        -3.8542    1.9056   64.6273 O.2     1  ZINC000489403631   -0.1600
     17 C17        -6.3889    0.4484   66.7691 C.2     1  ZINC000489403631    0.1000
     18 N18        -7.6631    0.7457   66.7590 N.2     1  ZINC000489403631   -0.2200
     19 C19       -11.0938    1.8341   61.4998 C.ar    1  ZINC000489403631   -0.1100
     20 C20       -11.6865    1.1875   60.4331 C.ar    1  ZINC000489403631   -0.1700
     21 C21       -11.1246    0.0242   59.9278 C.ar    1  ZINC000489403631    0.1000
     22 O22       -11.7086   -0.6120   58.8776 O.3     1  ZINC000489403631   -0.2500
     23 C23       -11.3425   -0.2411   57.6245 C.ar    1  ZINC000489403631    0.1400
     24 C24       -10.4237    0.7864   57.4235 C.ar    1  ZINC000489403631   -0.2000
     25 C25       -10.0775    1.1338   56.1340 C.ar    1  ZINC000489403631    0.1200
     26 N26       -10.6048    0.5063   55.0998 N.ar    1  ZINC000489403631   -0.4900
     27 C27       -11.4780   -0.4718   55.2494 C.ar    1  ZINC000489403631    0.1200
     28 C28       -11.8714   -0.8821   56.5067 C.ar    1  ZINC000489403631   -0.1800
     29 H29        -8.6474   -1.5158   59.1750 H       1  ZINC000489403631    0.0700
     30 H30        -8.8614   -2.3000   60.7585 H       1  ZINC000489403631    0.0700
     31 H31       -10.1534   -2.3925   59.5377 H       1  ZINC000489403631    0.0700
     32 H32        -8.4813   -0.2545   62.0107 H       1  ZINC000489403631    0.1500
     33 H33        -8.5986    2.5829   62.9989 H       1  ZINC000489403631    0.4100
     34 H34        -9.8474    4.4048   64.9757 H       1  ZINC000489403631    0.1000
     35 H35        -8.4268    4.4371   66.0477 H       1  ZINC000489403631    0.0900
     36 H36        -8.2403    3.9839   64.3365 H       1  ZINC000489403631    0.0800
     37 H37       -10.2254    1.3348   67.0470 H       1  ZINC000489403631    0.0800
     38 H38        -9.5859    2.8901   67.6305 H       1  ZINC000489403631    0.0900
     39 H39       -11.0066    2.8578   66.5586 H       1  ZINC000489403631    0.0900
     40 H40        -6.4622    2.9512   64.6614 H       1  ZINC000489403631    0.2000
     41 H41        -5.9264   -0.3364   67.3492 H       1  ZINC000489403631    0.2100
     42 H42       -11.5290    2.7420   61.8905 H       1  ZINC000489403631    0.1300
     43 H43       -12.5851    1.5900   59.9894 H       1  ZINC000489403631    0.1300
     44 H44        -9.9887    1.3043   58.2655 H       1  ZINC000489403631    0.1400
     45 H45        -9.3661    1.9295   55.9688 H       1  ZINC000489403631    0.1600
     46 H46       -11.8868   -0.9600   54.3770 H       1  ZINC000489403631    0.1700
     47 H47       -12.5862   -1.6834   56.6223 H       1  ZINC000489403631    0.1500
@<TRIPOS>BOND
     1     1     2    1
     2     1    29    1
     3     1    30    1
     4     1    31    1
     5     2    21   ar
     6     2     3   ar
     7     3     4   ar
     8     3    32    1
     9     4     5    1
    10     4    19   ar
    11     5     6   am
    12     5    33    1
    13     6     7    2
    14     6     8    1
    15     8     9    1
    16     8    10    1
    17     8    11    1
    18     9    34    1
    19     9    35    1
    20     9    36    1
    21    10    37    1
    22    10    38    1
    23    10    39    1
    24    11    18    1
    25    11    12    1
    26    12    13    2
    27    12    40    1
    28    13    14    1
    29    13    17    1
    30    14    15    2
    31    14    16    2
    32    17    18    2
    33    17    41    1
    34    19    20   ar
    35    19    42    1
    36    20    21   ar
    37    20    43    1
    38    21    22    1
    39    22    23    1
    40    23    28   ar
    41    23    24   ar
    42    24    25   ar
    43    24    44    1
    44    25    26   ar
    45    25    45    1
    46    26    27   ar
    47    27    28   ar
    48    27    46    1
    49    28    47    1
@<TRIPOS>SUBSTRUCTURE
     1 ZINC000489403631        1 TEMP              0 ****  ****    0 ROOT


##########                                Name:    ZINC001312809190
##########                DOCK_Rotatable_Bonds:                   6
##########                         Heavy_Atoms:                  29
##########                    Molecular_Weight:             395.501
##########                DOCK_Rotatable_Bonds:                   6
##########                       Formal_Charge:           0.0199995
##########                     HBond_Acceptors:                   6
##########                        HBond_Donors:                   1
##########                         Heavy_Atoms:                  29
##########                          Grid_Score:          -30.096098
##########                     Grid_vdw_energy:          -29.051962
##########                      Grid_es_energy:           -1.044136
##########           Internal_energy_repulsive:           31.782059

@<TRIPOS>MOLECULE
ZINC001312809190
 58 61 1 0 0
SMALL
USER_CHARGES


@<TRIPOS>ATOM
      1 C1        -10.6800    4.7487   48.0233 C.3     1  ZINC001312809190    0.0300
      2 O2        -11.1214    4.3745   49.3299 O.3     1  ZINC001312809190   -0.3200
      3 C3        -10.1873    3.8618   50.1733 C.ar    1  ZINC001312809190    0.1300
      4 C4         -8.8857    3.6693   49.7342 C.ar    1  ZINC001312809190   -0.2100
      5 C5         -7.9377    3.1484   50.5938 C.ar    1  ZINC001312809190   -0.0800
      6 C6         -8.2856    2.8184   51.8904 C.ar    1  ZINC001312809190   -0.1300
      7 C7         -9.5827    3.0089   52.3305 C.ar    1  ZINC001312809190   -0.0500
      8 C8         -9.9587    2.6478   53.7445 C.3     1  ZINC001312809190    0.1200
      9 H9        -10.4565    3.4952   54.2158 H       1  ZINC001312809190    0.0500
     10 C10        -8.6963    2.2945   54.5334 C.3     1  ZINC001312809190   -0.1400
     11 N11       -10.8664    1.4928   53.7301 N.3     1  ZINC001312809190   -0.5300
     12 C12       -11.7175    1.4773   54.9273 C.3     1  ZINC001312809190    0.0300
     13 C13       -12.7672    0.3694   54.7894 C.3     1  ZINC001312809190    0.1400
     14 N14       -12.0756   -0.8963   54.5015 N.am    1  ZINC001312809190   -0.6300
     15 C15       -12.3278   -2.0031   55.2280 C.2     1  ZINC001312809190    0.7100
     16 O16       -11.7466   -3.0410   54.9761 O.2     1  ZINC001312809190   -0.5800
     17 N17       -13.2240   -1.9594   56.2337 N.am    1  ZINC001312809190   -0.7300
     18 C18       -13.4980   -3.1626   57.0233 C.3     1  ZINC001312809190    0.1800
     19 H19       -12.6637   -3.8617   56.9667 H       1  ZINC001312809190    0.1200
     20 C20       -13.8098   -2.8061   58.4639 C.ar    1  ZINC001312809190   -0.1900
     21 C21       -13.1964   -1.9598   59.3604 C.ar    1  ZINC001312809190   -0.0500
     22 C22       -13.7094   -1.8161   60.6377 C.ar    1  ZINC001312809190   -0.1500
     23 C23       -14.8373   -2.5243   61.0081 C.ar    1  ZINC001312809190   -0.0800
     24 C24       -15.4514   -3.3755   60.1125 C.ar    1  ZINC001312809190   -0.1400
     25 C25       -14.9397   -3.5284   58.8266 C.ar    1  ZINC001312809190    0.1100
     26 O26       -15.3701   -4.3167   57.8035 O.3     1  ZINC001312809190   -0.2900
     27 C27       -14.8146   -3.8350   56.5673 C.3     1  ZINC001312809190    0.0800
     28 H28       -15.4794   -3.1065   56.1032 H       1  ZINC001312809190    0.0900
     29 C29       -14.5336   -4.9955   55.6108 C.3     1  ZINC001312809190   -0.1500
     30 C30       -11.1018   -0.9222   53.3995 C.3     1  ZINC001312809190    0.1200
     31 C31       -10.1178    0.2365   53.5921 C.3     1  ZINC001312809190    0.0400
     32 C32       -10.5326    3.5352   51.4769 C.ar    1  ZINC001312809190   -0.1500
     33 H33       -11.5223    5.1419   47.4540 H       1  ZINC001312809190    0.1000
     34 H34        -9.9083    5.5140   48.1058 H       1  ZINC001312809190    0.0600
     35 H35       -10.2729    3.8756   47.5134 H       1  ZINC001312809190    0.0600
     36 H36        -8.6135    3.9261   48.7211 H       1  ZINC001312809190    0.1300
     37 H37        -6.9242    2.9983   50.2524 H       1  ZINC001312809190    0.1300
     38 H38        -7.5433    2.4110   52.5608 H       1  ZINC001312809190    0.1300
     39 H39        -8.1985    1.4469   54.0621 H       1  ZINC001312809190    0.0700
     40 H40        -8.0227    3.1514   54.5441 H       1  ZINC001312809190    0.0600
     41 H41        -8.9682    2.0332   55.5561 H       1  ZINC001312809190    0.0600
     42 H42       -11.1032    1.2887   55.8078 H       1  ZINC001312809190    0.0400
     43 H43       -12.2168    2.4406   55.0311 H       1  ZINC001312809190    0.1000
     44 H44       -13.3269    0.2774   55.7201 H       1  ZINC001312809190    0.1000
     45 H45       -13.4474    0.6092   53.9721 H       1  ZINC001312809190    0.0700
     46 H46       -13.6875   -1.1314   56.4347 H       1  ZINC001312809190    0.4000
     47 H47       -12.3152   -1.4087   59.0669 H       1  ZINC001312809190    0.1200
     48 H48       -13.2299   -1.1532   61.3427 H       1  ZINC001312809190    0.1300
     49 H49       -15.2398   -2.4110   62.0038 H       1  ZINC001312809190    0.1300
     50 H50       -16.3319   -3.9254   60.4101 H       1  ZINC001312809190    0.1300
     51 H51       -15.4669   -5.5076   55.3766 H       1  ZINC001312809190    0.0800
     52 H52       -14.0900   -4.6104   54.6926 H       1  ZINC001312809190    0.0800
     53 H53       -13.8434   -5.6957   56.0818 H       1  ZINC001312809190    0.0700
     54 H54       -10.5606   -1.8682   53.4114 H       1  ZINC001312809190    0.0800
     55 H55       -11.6220   -0.8066   52.4486 H       1  ZINC001312809190    0.0800
     56 H56        -9.4569    0.2999   52.7276 H       1  ZINC001312809190    0.0900
     57 H57        -9.5258    0.0653   54.4912 H       1  ZINC001312809190    0.0400
     58 H58       -11.5454    3.6841   51.8212 H       1  ZINC001312809190    0.1300
@<TRIPOS>BOND
     1     1     2    1
     2     1    33    1
     3     1    34    1
     4     1    35    1
     5     2     3    1
     6     3    32   ar
     7     3     4   ar
     8     4     5   ar
     9     4    36    1
    10     5     6   ar
    11     5    37    1
    12     6     7   ar
    13     6    38    1
    14     7     8    1
    15     7    32   ar
    16     8     9    1
    17     8    10    1
    18     8    11    1
    19    10    39    1
    20    10    40    1
    21    10    41    1
    22    11    31    1
    23    11    12    1
    24    12    13    1
    25    12    42    1
    26    12    43    1
    27    13    14    1
    28    13    44    1
    29    13    45    1
    30    14    15   am
    31    14    30    1
    32    15    16    2
    33    15    17   am
    34    17    18    1
    35    17    46    1
    36    18    19    1
    37    18    27    1
    38    18    20    1
    39    20    25   ar
    40    20    21   ar
    41    21    22   ar
    42    21    47    1
    43    22    23   ar
    44    22    48    1
    45    23    24   ar
    46    23    49    1
    47    24    25   ar
    48    24    50    1
    49    25    26    1
    50    26    27    1
    51    27    28    1
    52    27    29    1
    53    29    51    1
    54    29    52    1
    55    29    53    1
    56    30    31    1
    57    30    54    1
    58    30    55    1
    59    31    56    1
    60    31    57    1
    61    32    58    1
@<TRIPOS>SUBSTRUCTURE
     1 ZINC001312809190        1 TEMP              0 ****  ****    0 ROOT


##########                                Name:    ZINC001284642199
##########                DOCK_Rotatable_Bonds:                   8
##########                         Heavy_Atoms:                  25
##########                    Molecular_Weight:             346.516
##########                DOCK_Rotatable_Bonds:                   8
##########                       Formal_Charge:         -3.8743e-07
##########                     HBond_Acceptors:                   5
##########                        HBond_Donors:                   2
##########                         Heavy_Atoms:                  25
##########                          Grid_Score:          -30.093159
##########                     Grid_vdw_energy:          -28.238701
##########                      Grid_es_energy:           -1.854457
##########           Internal_energy_repulsive:           20.175234

@<TRIPOS>MOLECULE
ZINC001284642199
 59 60 1 0 0
SMALL
USER_CHARGES


@<TRIPOS>ATOM
      1 C1        -13.3532    0.0401   52.9701 C.3     1  ZINC001284642199   -0.1100
      2 C2        -11.8818   -0.1001   52.6763 C.ar    1  ZINC001284642199   -0.1900
      3 C3        -11.0220    0.9763   52.8281 C.ar    1  ZINC001284642199    0.1500
      4 N4         -9.7359    0.8156   52.5610 N.ar    1  ZINC001284642199   -0.4900
      5 C5         -9.2709   -0.3491   52.1557 C.ar    1  ZINC001284642199    0.3100
      6 C6         -7.7995   -0.4893   51.8619 C.3     1  ZINC001284642199    0.1300
      7 N7         -7.0776    0.6641   52.4154 N.3     1  ZINC001284642199   -0.6800
      8 C8         -6.8061    1.6642   51.3743 C.3     1  ZINC001284642199    0.0500
      9 C9         -6.3627    2.9742   52.0287 C.3     1  ZINC001284642199    0.1600
     10 H10        -6.9933    3.7894   51.6737 H       1  ZINC001284642199    0.1000
     11 N11        -6.4862    2.8595   53.4839 N.am    1  ZINC001284642199   -0.7200
     12 C12        -7.6160    3.2626   54.0982 C.2     1  ZINC001284642199    0.5200
     13 O13        -8.5311    3.7190   53.4462 O.2     1  ZINC001284642199   -0.5300
     14 C14        -7.7424    3.1461   55.5954 C.3     1  ZINC001284642199   -0.1100
     15 H15        -6.8452    2.6778   56.0004 H       1  ZINC001284642199    0.0900
     16 C16        -7.9084    4.5404   56.2032 C.3     1  ZINC001284642199   -0.1000
     17 C17        -8.0366    4.4222   57.7232 C.3     1  ZINC001284642199   -0.1100
     18 C18        -9.2580    3.5672   58.0671 C.3     1  ZINC001284642199   -0.0900
     19 H19       -10.1551    4.0356   57.6621 H       1  ZINC001284642199    0.0700
     20 C20        -9.3862    3.4490   59.5871 C.3     1  ZINC001284642199   -0.1500
     21 C21        -9.0919    2.1730   57.4593 C.3     1  ZINC001284642199   -0.1100
     22 C22        -8.9637    2.2911   55.9393 C.3     1  ZINC001284642199   -0.1100
     23 C23        -4.9052    3.2600   51.6615 C.3     1  ZINC001284642199   -0.0800
     24 C24        -4.7872    3.4434   50.1472 C.3     1  ZINC001284642199   -0.1400
     25 C25        -4.4422    4.5361   52.3674 C.3     1  ZINC001284642199   -0.1400
     26 C26        -4.0285    2.0863   52.1030 C.3     1  ZINC001284642199   -0.1300
     27 N27       -10.0593   -1.3931   51.9954 N.ar    1  ZINC001284642199   -0.5100
     28 C28       -11.3556   -1.3087   52.2482 C.ar    1  ZINC001284642199    0.1500
     29 H29       -13.8769    0.3465   52.0646 H       1  ZINC001284642199    0.0800
     30 H30       -13.7481   -0.9165   53.3122 H       1  ZINC001284642199    0.0700
     31 H31       -13.4988    0.7916   53.7460 H       1  ZINC001284642199    0.0700
     32 H32       -11.3967    1.9335   53.1595 H       1  ZINC001284642199    0.1700
     33 H33        -7.6466   -0.5302   50.7834 H       1  ZINC001284642199    0.1000
     34 H34        -7.4239   -1.4056   52.3171 H       1  ZINC001284642199    0.0600
     35 H35        -6.2243    0.3731   52.8686 H       1  ZINC001284642199    0.3400
     36 H36        -7.7110    1.8371   50.7917 H       1  ZINC001284642199    0.0900
     37 H37        -6.0155    1.3003   50.7181 H       1  ZINC001284642199    0.0400
     38 H38        -5.7548    2.4933   54.0054 H       1  ZINC001284642199    0.3900
     39 H39        -8.8055    5.0088   55.7982 H       1  ZINC001284642199    0.0700
     40 H40        -7.0384    5.1496   55.9582 H       1  ZINC001284642199    0.0700
     41 H41        -8.1550    5.4155   58.1562 H       1  ZINC001284642199    0.0700
     42 H42        -7.1396    3.9539   58.1282 H       1  ZINC001284642199    0.0600
     43 H43        -9.5046    4.4423   60.0200 H       1  ZINC001284642199    0.0500
     44 H44       -10.2563    2.8399   59.8321 H       1  ZINC001284642199    0.0500
     45 H45        -8.4892    2.9806   59.9920 H       1  ZINC001284642199    0.0500
     46 H46        -8.1948    1.7046   57.8642 H       1  ZINC001284642199    0.0600
     47 H47        -9.9619    1.5638   57.7042 H       1  ZINC001284642199    0.0700
     48 H48        -9.8608    2.7595   55.5343 H       1  ZINC001284642199    0.0700
     49 H49        -8.8453    1.2979   55.5063 H       1  ZINC001284642199    0.0600
     50 H50        -5.4118    4.2796   49.8327 H       1  ZINC001284642199    0.0600
     51 H51        -3.7489    3.6469   49.8855 H       1  ZINC001284642199    0.0600
     52 H52        -5.1171    2.5342   49.6443 H       1  ZINC001284642199    0.0500
     53 H53        -4.5261    4.4055   53.4462 H       1  ZINC001284642199    0.0600
     54 H54        -3.4037    4.7397   52.1058 H       1  ZINC001284642199    0.0600
     55 H55        -5.0667    5.3723   52.0529 H       1  ZINC001284642199    0.0600
     56 H56        -4.3583    1.1773   51.6002 H       1  ZINC001284642199    0.0500
     57 H57        -2.9901    2.2899   51.8413 H       1  ZINC001284642199    0.0500
     58 H58        -4.1125    1.9557   53.1818 H       1  ZINC001284642199    0.0600
     59 H59       -11.9955   -2.1691   52.1184 H       1  ZINC001284642199    0.1700
@<TRIPOS>BOND
     1     1     2    1
     2     1    29    1
     3     1    30    1
     4     1    31    1
     5     2    28   ar
     6     2     3   ar
     7     3     4   ar
     8     3    32    1
     9     4     5   ar
    10     5     6    1
    11     5    27   ar
    12     6     7    1
    13     6    33    1
    14     6    34    1
    15     7     8    1
    16     7    35    1
    17     8     9    1
    18     8    36    1
    19     8    37    1
    20     9    10    1
    21     9    11    1
    22     9    23    1
    23    11    12   am
    24    11    38    1
    25    12    13    2
    26    12    14    1
    27    14    15    1
    28    14    22    1
    29    14    16    1
    30    16    17    1
    31    16    39    1
    32    16    40    1
    33    17    18    1
    34    17    41    1
    35    17    42    1
    36    18    19    1
    37    18    20    1
    38    18    21    1
    39    20    43    1
    40    20    44    1
    41    20    45    1
    42    21    22    1
    43    21    46    1
    44    21    47    1
    45    22    48    1
    46    22    49    1
    47    23    24    1
    48    23    25    1
    49    23    26    1
    50    24    50    1
    51    24    51    1
    52    24    52    1
    53    25    53    1
    54    25    54    1
    55    25    55    1
    56    26    56    1
    57    26    57    1
    58    26    58    1
    59    27    28   ar
    60    28    59    1
@<TRIPOS>SUBSTRUCTURE
     1 ZINC001284642199        1 TEMP              0 ****  ****    0 ROOT


##########                                Name:    ZINC000007167963
##########                DOCK_Rotatable_Bonds:                   8
##########                         Heavy_Atoms:                  25
##########                    Molecular_Weight:             378.433
##########                DOCK_Rotatable_Bonds:                   8
##########                       Formal_Charge:        -1.01328e-06
##########                     HBond_Acceptors:                  10
##########                        HBond_Donors:                   3
##########                         Heavy_Atoms:                  25
##########                          Grid_Score:          -30.092375
##########                     Grid_vdw_energy:          -26.246546
##########                      Grid_es_energy:           -3.845829
##########           Internal_energy_repulsive:            7.917749

@<TRIPOS>MOLECULE
ZINC000007167963
 39 41 1 0 0
SMALL
USER_CHARGES


@<TRIPOS>ATOM
      1 C1        -10.0137    4.5519   49.7951 C.3     1  ZINC000007167963   -0.0800
      2 C2         -9.1042    5.5249   50.5003 C.2     1  ZINC000007167963    0.0900
      3 C3         -7.7925    5.3164   50.7972 C.2     1  ZINC000007167963   -0.1500
      4 C4         -6.9901    4.1119   50.4974 C.2     1  ZINC000007167963    0.2600
      5 N5         -7.4119    3.0297   49.8901 N.2     1  ZINC000007167963   -0.2700
      6 N6         -6.4450    2.1859   49.7988 N.2     1  ZINC000007167963   -0.2800
      7 C7         -5.3669    2.6959   50.3444 C.2     1  ZINC000007167963    0.1200
      8 S8         -3.7901    1.9185   50.4617 S.3     1  ZINC000007167963    0.1500
      9 C9         -2.8580    3.2235   51.3010 C.3     1  ZINC000007167963   -0.1200
     10 H10        -3.1424    4.1933   50.8926 H       1  ZINC000007167963    0.1400
     11 C11        -3.1690    3.1899   52.7986 C.3     1  ZINC000007167963   -0.1500
     12 C12        -1.3824    3.0025   51.0893 C.2     1  ZINC000007167963    0.5300
     13 O13        -0.7931    3.6245   50.2310 O.2     1  ZINC000007167963   -0.4900
     14 N14        -0.7176    2.1136   51.8538 N.am    1  ZINC000007167963   -0.6100
     15 C15         0.6404    1.9115   51.6601 C.2     1  ZINC000007167963    0.0800
     16 C16         1.6302    2.5102   52.3956 C.2     1  ZINC000007167963   -0.2400
     17 C17         1.3715    3.4495   53.4913 C.2     1  ZINC000007167963    0.5900
     18 N18         0.6663    3.0508   54.5685 N.am    1  ZINC000007167963   -0.8400
     19 O19         1.7936    4.5893   53.4282 O.2     1  ZINC000007167963   -0.5600
     20 C20         2.9571    2.1156   51.9762 C.2     1  ZINC000007167963   -0.0900
     21 C21         2.9508    1.2564   50.9670 C.2     1  ZINC000007167963   -0.2800
     22 S22         1.3080    0.8791   50.4797 S.3     1  ZINC000007167963    0.3000
     23 O23        -5.6849    3.9259   50.7937 O.3     1  ZINC000007167963   -0.2000
     24 C24        -7.3397    6.5372   51.4767 C.2     1  ZINC000007167963   -0.1800
     25 C25        -8.4060    7.3524   51.5235 C.2     1  ZINC000007167963   -0.0300
     26 O26        -9.4482    6.7450   50.9365 O.3     1  ZINC000007167963   -0.1700
     27 H27       -11.0056    4.9918   49.6910 H       1  ZINC000007167963    0.0800
     28 H28        -9.6103    4.3276   48.8077 H       1  ZINC000007167963    0.1000
     29 H29       -10.0833    3.6326   50.3767 H       1  ZINC000007167963    0.1000
     30 H30        -4.2363    3.3497   52.9518 H       1  ZINC000007167963    0.0900
     31 H31        -2.8846    2.2201   53.2071 H       1  ZINC000007167963    0.0800
     32 H32        -2.6078    3.9757   53.3040 H       1  ZINC000007167963    0.0800
     33 H33        -1.1893    1.6153   52.5395 H       1  ZINC000007167963    0.4400
     34 H34         0.4942    3.6727   55.2928 H       1  ZINC000007167963    0.4000
     35 H35         0.3308    2.1422   54.6195 H       1  ZINC000007167963    0.4100
     36 H36         3.8610    2.4843   52.4380 H       1  ZINC000007167963    0.1500
     37 H37         3.8369    0.8418   50.5093 H       1  ZINC000007167963    0.1700
     38 H38        -6.3506    6.7381   51.8611 H       1  ZINC000007167963    0.1600
     39 H39        -8.4207    8.3402   51.9600 H       1  ZINC000007167963    0.2200
@<TRIPOS>BOND
     1     1     2    1
     2     1    27    1
     3     1    28    1
     4     1    29    1
     5     2    26    1
     6     2     3    2
     7     3     4    1
     8     3    24    1
     9     4    23    1
    10     4     5    2
    11     5     6    1
    12     6     7    2
    13     7     8    1
    14     7    23    1
    15     8     9    1
    16     9    10    1
    17     9    11    1
    18     9    12    1
    19    11    30    1
    20    11    31    1
    21    11    32    1
    22    12    13    2
    23    12    14   am
    24    14    15    1
    25    14    33    1
    26    15    22    1
    27    15    16    2
    28    16    17    1
    29    16    20    1
    30    17    18   am
    31    17    19    2
    32    18    34    1
    33    18    35    1
    34    20    21    2
    35    20    36    1
    36    21    22    1
    37    21    37    1
    38    24    25    2
    39    24    38    1
    40    25    26    1
    41    25    39    1
@<TRIPOS>SUBSTRUCTURE
     1 ZINC000007167963        1 TEMP              0 ****  ****    0 ROOT


##########                                Name:    ZINC000643274279
##########                DOCK_Rotatable_Bonds:                   6
##########                         Heavy_Atoms:                  29
##########                    Molecular_Weight:             392.454
##########                DOCK_Rotatable_Bonds:                   6
##########                       Formal_Charge:         -0.00999939
##########                     HBond_Acceptors:                   6
##########                        HBond_Donors:                   2
##########                         Heavy_Atoms:                  29
##########                          Grid_Score:          -30.076242
##########                     Grid_vdw_energy:          -28.978161
##########                      Grid_es_energy:           -1.098082
##########           Internal_energy_repulsive:           12.850197

@<TRIPOS>MOLECULE
ZINC000643274279
 53 56 1 0 0
SMALL
USER_CHARGES


@<TRIPOS>ATOM
      1 O1        -12.5793    1.4063   60.4677 O.2     1  ZINC000643274279   -0.4900
      2 C2        -12.3886    0.9308   61.5681 C.2     1  ZINC000643274279    0.5100
      3 N3        -12.6120   -0.3807   61.7835 N.am    1  ZINC000643274279   -0.6400
      4 C4        -13.0687   -1.1922   60.7413 C.ar    1  ZINC000643274279    0.1300
      5 C5        -14.3864   -1.6361   60.7341 C.ar    1  ZINC000643274279   -0.1000
      6 C6        -14.8446   -2.4498   59.7123 C.ar    1  ZINC000643274279   -0.1000
      7 C7        -13.9910   -2.8235   58.6979 C.ar    1  ZINC000643274279   -0.0600
      8 C8        -14.4696   -3.7724   57.6131 C.3     1  ZINC000643274279   -0.0900
      9 C9        -14.5386   -3.0250   56.2863 C.3     1  ZINC000643274279   -0.1200
     10 C10       -13.2043   -3.0608   55.5564 C.3     1  ZINC000643274279   -0.1100
     11 C11       -12.1327   -2.2084   56.1877 C.3     1  ZINC000643274279   -0.1600
     12 C12       -11.7877   -2.7401   57.5653 C.2     1  ZINC000643274279    0.4100
     13 O13       -10.8185   -3.4470   57.7420 O.2     1  ZINC000643274279   -0.4400
     14 C14       -12.6738   -2.3653   58.6811 C.ar    1  ZINC000643274279   -0.1300
     15 C15       -12.2081   -1.5482   59.7130 C.ar    1  ZINC000643274279   -0.1000
     16 C16       -11.9005    1.7981   62.6818 C.2     1  ZINC000643274279    0.5200
     17 O17       -12.5827    2.7213   63.0755 O.2     1  ZINC000643274279   -0.5000
     18 N18       -10.7025    1.5553   63.2494 N.am    1  ZINC000643274279   -0.5800
     19 C19       -10.1014    2.3283   64.3515 C.3     1  ZINC000643274279    0.0900
     20 C20        -9.1129    1.3477   65.0305 C.3     1  ZINC000643274279   -0.1400
     21 C21        -8.5555    0.5712   63.8084 C.3     1  ZINC000643274279   -0.1200
     22 C22        -9.7814    0.4718   62.8764 C.3     1  ZINC000643274279    0.1800
     23 H23       -10.2674   -0.4954   63.0049 H       1  ZINC000643274279    0.0900
     24 C24        -9.3500    0.6418   61.4425 C.ar    1  ZINC000643274279   -0.1000
     25 C25        -9.2926    1.9054   60.8842 C.ar    1  ZINC000643274279   -0.0900
     26 C26        -8.8975    2.0639   59.5699 C.ar    1  ZINC000643274279   -0.1400
     27 C27        -8.5578    0.9539   58.8104 C.ar    1  ZINC000643274279    0.1100
     28 O28        -8.1683    1.1072   57.5174 O.3     1  ZINC000643274279   -0.5000
     29 C29        -8.6157   -0.3129   59.3730 C.ar    1  ZINC000643274279   -0.1400
     30 C30        -9.0068   -0.4657   60.6890 C.ar    1  ZINC000643274279   -0.0900
     31 H31       -12.4558   -0.7614   62.6619 H       1  ZINC000643274279    0.4200
     32 H32       -15.0557   -1.3450   61.5301 H       1  ZINC000643274279    0.1400
     33 H33       -15.8691   -2.7912   59.7105 H       1  ZINC000643274279    0.1400
     34 H34       -13.7729   -4.6060   57.5254 H       1  ZINC000643274279    0.0800
     35 H35       -15.4593   -4.1498   57.8703 H       1  ZINC000643274279    0.0800
     36 H36       -15.3011   -3.4849   55.6576 H       1  ZINC000643274279    0.0800
     37 H37       -14.8133   -1.9872   56.4758 H       1  ZINC000643274279    0.0700
     38 H38       -12.8535   -4.0923   55.5257 H       1  ZINC000643274279    0.0700
     39 H39       -13.3599   -2.7204   54.5327 H       1  ZINC000643274279    0.0800
     40 H40       -11.2415   -2.2247   55.5603 H       1  ZINC000643274279    0.0900
     41 H41       -12.4916   -1.1828   56.2756 H       1  ZINC000643274279    0.0900
     42 H42       -11.1859   -1.1996   59.7128 H       1  ZINC000643274279    0.1300
     43 H43        -9.5679    3.1946   63.9604 H       1  ZINC000643274279    0.0800
     44 H44       -10.8699    2.6421   65.0580 H       1  ZINC000643274279    0.1000
     45 H45        -8.3186    1.8880   65.5456 H       1  ZINC000643274279    0.0900
     46 H46        -9.6347    0.6780   65.7142 H       1  ZINC000643274279    0.0800
     47 H47        -7.7488    1.1287   63.3326 H       1  ZINC000643274279    0.0800
     48 H48        -8.2173   -0.4220   64.1042 H       1  ZINC000643274279    0.0900
     49 H49        -9.5573    2.7693   61.4759 H       1  ZINC000643274279    0.1200
     50 H50        -8.8536    3.0511   59.1341 H       1  ZINC000643274279    0.1300
     51 H51        -8.1599    2.0258   57.2155 H       1  ZINC000643274279    0.3900
     52 H52        -8.3520   -1.1786   58.7836 H       1  ZINC000643274279    0.1300
     53 H53        -9.0518   -1.4515   61.1276 H       1  ZINC000643274279    0.1300
@<TRIPOS>BOND
     1     1     2    2
     2     2     3   am
     3     2    16    1
     4     3     4    1
     5     3    31    1
     6     4    15   ar
     7     4     5   ar
     8     5     6   ar
     9     5    32    1
    10     6     7   ar
    11     6    33    1
    12     7    14   ar
    13     7     8    1
    14     8     9    1
    15     8    34    1
    16     8    35    1
    17     9    10    1
    18     9    36    1
    19     9    37    1
    20    10    11    1
    21    10    38    1
    22    10    39    1
    23    11    12    1
    24    11    40    1
    25    11    41    1
    26    12    13    2
    27    12    14    1
    28    14    15   ar
    29    15    42    1
    30    16    17    2
    31    16    18   am
    32    18    22    1
    33    18    19    1
    34    19    20    1
    35    19    43    1
    36    19    44    1
    37    20    21    1
    38    20    45    1
    39    20    46    1
    40    21    22    1
    41    21    47    1
    42    21    48    1
    43    22    23    1
    44    22    24    1
    45    24    30   ar
    46    24    25   ar
    47    25    26   ar
    48    25    49    1
    49    26    27   ar
    50    26    50    1
    51    27    28    1
    52    27    29   ar
    53    28    51    1
    54    29    30   ar
    55    29    52    1
    56    30    53    1
@<TRIPOS>SUBSTRUCTURE
     1 ZINC000643274279        1 TEMP              0 ****  ****    0 ROOT


##########                                Name:    ZINC001109404798
##########                DOCK_Rotatable_Bonds:                   7
##########                         Heavy_Atoms:                  25
##########                    Molecular_Weight:              360.48
##########                DOCK_Rotatable_Bonds:                   7
##########                       Formal_Charge:           0.0100002
##########                     HBond_Acceptors:                   7
##########                        HBond_Donors:                   1
##########                         Heavy_Atoms:                  25
##########                          Grid_Score:          -30.075930
##########                     Grid_vdw_energy:          -29.081345
##########                      Grid_es_energy:           -0.994584
##########           Internal_energy_repulsive:           26.600405

@<TRIPOS>MOLECULE
ZINC001109404798
 49 52 1 0 0
SMALL
USER_CHARGES


@<TRIPOS>ATOM
      1 C1        -10.8780   -0.5514   52.6618 C.3     1  ZINC001109404798   -0.0600
      2 C2        -10.0624    0.7102   52.7803 C.2     1  ZINC001109404798    0.1700
      3 N3         -9.7952    1.3531   53.8776 N.2     1  ZINC001109404798   -0.3900
      4 O4         -9.1158    2.3289   53.6377 O.3     1  ZINC001109404798    0.1000
      5 C5         -8.8779    2.4036   52.3248 C.2     1  ZINC001109404798    0.1900
      6 C6         -8.0752    3.4645   51.6169 C.3     1  ZINC001109404798    0.1600
      7 H7         -7.8350    4.2655   52.3161 H       1  ZINC001109404798    0.1000
      8 C8         -8.8922    4.0310   50.4538 C.3     1  ZINC001109404798   -0.1500
      9 N9         -6.8323    2.8755   51.1011 N.3     1  ZINC001109404798   -0.4800
     10 C10        -6.0441    2.2238   52.2072 C.3     1  ZINC001109404798    0.0400
     11 H11        -6.5245    1.3780   52.6992 H       1  ZINC001109404798    0.1100
     12 C12        -5.7412    3.4501   53.1200 C.3     1  ZINC001109404798   -0.1600
     13 C13        -5.6019    4.6219   52.1175 C.3     1  ZINC001109404798   -0.1600
     14 C14        -5.8393    3.9469   50.7329 C.3     1  ZINC001109404798    0.0400
     15 H15        -6.1395    4.6175   49.9277 H       1  ZINC001109404798    0.1200
     16 C16        -4.5528    3.1086   50.4660 C.3     1  ZINC001109404798    0.1500
     17 H17        -4.5412    2.7396   49.4405 H       1  ZINC001109404798    0.1000
     18 N18        -3.3532    3.9034   50.7402 N.am    1  ZINC001109404798   -0.7200
     19 C19        -2.1318    3.3774   50.5211 C.2     1  ZINC001109404798    0.5100
     20 O20        -2.0259    2.2467   50.0956 O.2     1  ZINC001109404798   -0.5300
     21 C21        -0.8976    4.1944   50.8048 C.3     1  ZINC001109404798   -0.1300
     22 C22         0.0410    3.4010   51.7161 C.3     1  ZINC001109404798   -0.0400
     23 C23         0.9134    2.5020   50.8784 C.2     1  ZINC001109404798   -0.1000
     24 C24         1.7646    2.9749   49.9668 C.2     1  ZINC001109404798   -0.2100
     25 S25         2.6043    1.6367   49.1937 S.3     1  ZINC001109404798    0.1000
     26 C26         1.7262    0.4761   50.1812 C.2     1  ZINC001109404798   -0.2100
     27 C27         0.8965    1.1234   51.0009 C.2     1  ZINC001109404798   -0.1300
     28 C28        -4.7074    1.9042   51.4723 C.3     1  ZINC001109404798   -0.1100
     29 N29        -9.4723    1.3743   51.7706 N.2     1  ZINC001109404798   -0.4800
     30 H30       -10.2238   -1.4177   52.7608 H       1  ZINC001109404798    0.0900
     31 H31       -11.6308   -0.5728   53.4499 H       1  ZINC001109404798    0.0900
     32 H32       -11.3693   -0.5764   51.6892 H       1  ZINC001109404798    0.0900
     33 H33        -9.8145    4.4680   50.8366 H       1  ZINC001109404798    0.0700
     34 H34        -8.3116    4.7984   49.9419 H       1  ZINC001109404798    0.0800
     35 H35        -9.1325    3.2301   49.7546 H       1  ZINC001109404798    0.0800
     36 H36        -6.5673    3.6298   53.8079 H       1  ZINC001109404798    0.0700
     37 H37        -4.8104    3.3006   53.6671 H       1  ZINC001109404798    0.0800
     38 H38        -6.3590    5.3823   52.3085 H       1  ZINC001109404798    0.0700
     39 H39        -4.6022    5.0532   52.1678 H       1  ZINC001109404798    0.0800
     40 H40        -3.4378    4.8082   51.0794 H       1  ZINC001109404798    0.4000
     41 H41        -0.3887    4.4212   49.8680 H       1  ZINC001109404798    0.0900
     42 H42        -1.1826    5.1240   51.2976 H       1  ZINC001109404798    0.1000
     43 H43         0.6672    4.0909   52.2817 H       1  ZINC001109404798    0.0800
     44 H44        -0.5478    2.7961   52.4057 H       1  ZINC001109404798    0.0800
     45 H45         1.9149    4.0196   49.7380 H       1  ZINC001109404798    0.1600
     46 H46         1.8443   -0.5965   50.1345 H       1  ZINC001109404798    0.1600
     47 H47         0.2543    0.6102   51.7014 H       1  ZINC001109404798    0.1400
     48 H48        -3.8863    1.8954   52.1893 H       1  ZINC001109404798    0.0800
     49 H49        -4.7578    0.9580   50.9335 H       1  ZINC001109404798    0.0900
@<TRIPOS>BOND
     1     1     2    1
     2     1    30    1
     3     1    31    1
     4     1    32    1
     5     2    29    1
     6     2     3    2
     7     3     4    1
     8     4     5    1
     9     5     6    1
    10     5    29    2
    11     6     7    1
    12     6     8    1
    13     6     9    1
    14     8    33    1
    15     8    34    1
    16     8    35    1
    17     9    14    1
    18     9    10    1
    19    10    11    1
    20    10    28    1
    21    10    12    1
    22    12    13    1
    23    12    36    1
    24    12    37    1
    25    13    14    1
    26    13    38    1
    27    13    39    1
    28    14    15    1
    29    14    16    1
    30    16    17    1
    31    16    18    1
    32    16    28    1
    33    18    19   am
    34    18    40    1
    35    19    20    2
    36    19    21    1
    37    21    22    1
    38    21    41    1
    39    21    42    1
    40    22    23    1
    41    22    43    1
    42    22    44    1
    43    23    27    1
    44    23    24    2
    45    24    25    1
    46    24    45    1
    47    25    26    1
    48    26    27    2
    49    26    46    1
    50    27    47    1
    51    28    48    1
    52    28    49    1
@<TRIPOS>SUBSTRUCTURE
     1 ZINC001109404798        1 TEMP              0 ****  ****    0 ROOT


##########                                Name:    ZINC000774689801
##########                DOCK_Rotatable_Bonds:                   4
##########                         Heavy_Atoms:                  24
##########                    Molecular_Weight:             347.395
##########                DOCK_Rotatable_Bonds:                   4
##########                       Formal_Charge:         -0.00999961
##########                     HBond_Acceptors:                   8
##########                        HBond_Donors:                   1
##########                         Heavy_Atoms:                  24
##########                          Grid_Score:          -30.055187
##########                     Grid_vdw_energy:          -29.825068
##########                      Grid_es_energy:           -0.230120
##########           Internal_energy_repulsive:            7.012804

@<TRIPOS>MOLECULE
ZINC000774689801
 41 44 1 0 0
SMALL
USER_CHARGES


@<TRIPOS>ATOM
      1 C1         -8.7243   -0.8083   61.0011 C.3     1  ZINC000774689801   -0.1200
      2 C2        -10.2245   -0.7307   61.1217 C.2     1  ZINC000774689801    0.0600
      3 C3        -10.8297   -0.0417   62.1024 C.2     1  ZINC000774689801   -0.2800
      4 C4        -10.1321    0.7032   63.1525 C.2     1  ZINC000774689801    0.5500
      5 O5         -9.3831    1.6146   62.8564 O.2     1  ZINC000774689801   -0.4900
      6 O6        -10.3202    0.3787   64.4483 O.3     1  ZINC000774689801   -0.3400
      7 C7         -9.6623    1.2122   65.4387 C.3     1  ZINC000774689801    0.0900
      8 C8         -8.1772    0.8502   65.5044 C.3     1  ZINC000774689801   -0.1300
      9 H9         -7.7506    0.8095   64.5022 H       1  ZINC000774689801    0.1200
     10 C10        -7.4098    1.8695   66.3781 C.3     1  ZINC000774689801   -0.1300
     11 C11        -6.3752    0.9643   67.0829 C.3     1  ZINC000774689801    0.1000
     12 N12        -6.9740   -0.3755   67.0996 N.am    1  ZINC000774689801   -0.7400
     13 C13        -7.9852   -0.4712   66.2156 C.2     1  ZINC000774689801    0.5200
     14 O14        -8.6464   -1.4693   66.0219 O.2     1  ZINC000774689801   -0.5100
     15 S15       -12.5746   -0.1583   61.9492 S.3     1  ZINC000774689801    0.3000
     16 C16       -12.4297   -1.1693   60.5162 C.2     1  ZINC000774689801    0.1000
     17 C17       -11.0768   -1.3644   60.2195 C.2     1  ZINC000774689801   -0.2500
     18 C18       -10.7655   -2.1941   59.0400 C.2     1  ZINC000774689801    0.5700
     19 O19        -9.6105   -2.4100   58.7189 O.2     1  ZINC000774689801   -0.5000
     20 N20       -11.7905   -2.7107   58.3223 N.am    1  ZINC000774689801   -0.5500
     21 C21       -11.7388   -3.5551   57.1164 C.3     1  ZINC000774689801    0.0900
     22 C22       -13.1366   -4.1973   56.9995 C.3     1  ZINC000774689801   -0.1300
     23 C23       -14.0214   -3.1625   57.7274 C.3     1  ZINC000774689801   -0.0800
     24 C24       -13.0738   -2.4672   58.6907 C.2     1  ZINC000774689801    0.4200
     25 N25       -13.3644   -1.7300   59.7296 N.2     1  ZINC000774689801   -0.5100
     26 H26        -8.3663    0.0155   60.3837 H       1  ZINC000774689801    0.0800
     27 H27        -8.2761   -0.7408   61.9924 H       1  ZINC000774689801    0.1000
     28 H28        -8.4453   -1.7558   60.5400 H       1  ZINC000774689801    0.0800
     29 H29        -9.7688    2.2605   65.1600 H       1  ZINC000774689801    0.0900
     30 H30       -10.1199    1.0473   66.4142 H       1  ZINC000774689801    0.0800
     31 H31        -6.9156    2.6189   65.7601 H       1  ZINC000774689801    0.1000
     32 H32        -8.0741    2.3401   67.1029 H       1  ZINC000774689801    0.0900
     33 H33        -5.4403    0.9527   66.5224 H       1  ZINC000774689801    0.0800
     34 H34        -6.2010    1.3123   68.1010 H       1  ZINC000774689801    0.0800
     35 H35        -6.6782   -1.1000   67.6728 H       1  ZINC000774689801    0.4100
     36 H36       -11.5299   -2.9448   56.2378 H       1  ZINC000774689801    0.1000
     37 H37       -10.9778   -4.3272   57.2294 H       1  ZINC000774689801    0.1000
     38 H38       -13.4331   -4.2983   55.9554 H       1  ZINC000774689801    0.1100
     39 H39       -13.1663   -5.1615   57.5069 H       1  ZINC000774689801    0.0900
     40 H40       -14.4344   -2.4470   57.0163 H       1  ZINC000774689801    0.1200
     41 H41       -14.8211   -3.6624   58.2740 H       1  ZINC000774689801    0.1200
@<TRIPOS>BOND
     1     1     2    1
     2     1    26    1
     3     1    27    1
     4     1    28    1
     5     2    17    1
     6     2     3    2
     7     3     4    1
     8     3    15    1
     9     4     5    2
    10     4     6    1
    11     6     7    1
    12     7     8    1
    13     7    29    1
    14     7    30    1
    15     8     9    1
    16     8    13    1
    17     8    10    1
    18    10    11    1
    19    10    31    1
    20    10    32    1
    21    11    12    1
    22    11    33    1
    23    11    34    1
    24    12    13   am
    25    12    35    1
    26    13    14    2
    27    15    16    1
    28    16    25    1
    29    16    17    2
    30    17    18    1
    31    18    19    2
    32    18    20   am
    33    20    24    1
    34    20    21    1
    35    21    22    1
    36    21    36    1
    37    21    37    1
    38    22    23    1
    39    22    38    1
    40    22    39    1
    41    23    24    1
    42    23    40    1
    43    23    41    1
    44    24    25    2
@<TRIPOS>SUBSTRUCTURE
     1 ZINC000774689801        1 TEMP              0 ****  ****    0 ROOT


##########                                Name:    ZINC000432833246
##########                DOCK_Rotatable_Bonds:                   5
##########                         Heavy_Atoms:                  25
##########                    Molecular_Weight:             400.318
##########                DOCK_Rotatable_Bonds:                   5
##########                       Formal_Charge:        -3.20375e-07
##########                     HBond_Acceptors:                   4
##########                        HBond_Donors:                   1
##########                         Heavy_Atoms:                  25
##########                          Grid_Score:          -30.038807
##########                     Grid_vdw_energy:          -25.912096
##########                      Grid_es_energy:           -4.126711
##########           Internal_energy_repulsive:            5.790829

@<TRIPOS>MOLECULE
ZINC000432833246
 47 51 1 0 0
SMALL
USER_CHARGES


@<TRIPOS>ATOM
      1 O1         -3.6925    1.0825   67.1690 O.2     1  ZINC000432833246   -0.5200
      2 C2         -4.7060    1.3074   66.5419 C.2     1  ZINC000432833246    0.5200
      3 C3         -6.0708    0.7430   66.8694 C.3     1  ZINC000432833246   -0.1500
      4 C4         -7.0510    1.6339   66.0715 C.3     1  ZINC000432833246   -0.1100
      5 H5         -7.4146    2.4591   66.6837 H       1  ZINC000432833246    0.1000
      6 C6         -8.2162    0.8091   65.5211 C.3     1  ZINC000432833246    0.1300
      7 N7         -8.8625    1.5439   64.4307 N.pl3   1  ZINC000432833246   -0.7200
      8 C8         -9.8107    0.9156   63.6378 C.ar    1  ZINC000432833246    0.2800
      9 C9        -11.1923    1.1656   63.8153 C.ar    1  ZINC000432833246   -0.1500
     10 C10       -11.6526    2.0555   64.7958 C.ar    1  ZINC000432833246   -0.0700
     11 C11       -12.9907    2.2706   64.9361 C.ar    1  ZINC000432833246   -0.1300
     12 C12       -13.9084    1.6168   64.1175 C.ar    1  ZINC000432833246   -0.0600
     13 C13       -13.4949    0.7460   63.1552 C.ar    1  ZINC000432833246   -0.0800
     14 Br14      -14.7629   -0.1275   62.0573 Br      1  ZINC000432833246   -0.0300
     15 C15       -12.1213    0.4995   62.9809 C.ar    1  ZINC000432833246    0.1900
     16 N16       -11.6874   -0.3503   62.0433 N.ar    1  ZINC000432833246   -0.5000
     17 C17       -10.4085   -0.5901   61.8688 C.ar    1  ZINC000432833246    0.2400
     18 C18        -9.9850   -1.5586   60.7948 C.3     1  ZINC000432833246   -0.1100
     19 C19       -10.2260   -1.1500   59.3402 C.3     1  ZINC000432833246   -0.1700
     20 C20        -8.8050   -1.1576   59.9073 C.3     1  ZINC000432833246   -0.1600
     21 C21        -9.4352    0.0269   62.6425 C.ar    1  ZINC000432833246   -0.2700
     22 C22        -6.1488    2.1492   64.9284 C.3     1  ZINC000432833246    0.1100
     23 N23        -4.7810    2.0989   65.4580 N.am    1  ZINC000432833246   -0.5900
     24 C24        -3.6420    2.8123   64.8750 C.3     1  ZINC000432833246    0.0800
     25 C25        -3.8467    4.2805   64.4965 C.3     1  ZINC000432833246   -0.1900
     26 C26        -2.9951    3.9160   65.7142 C.3     1  ZINC000432833246   -0.1900
     27 H27        -6.1439   -0.2937   66.5409 H       1  ZINC000432833246    0.1100
     28 H28        -6.2690    0.8203   67.9385 H       1  ZINC000432833246    0.1000
     29 H29        -7.8418   -0.1432   65.1455 H       1  ZINC000432833246    0.0800
     30 H30        -8.9399    0.6272   66.3157 H       1  ZINC000432833246    0.0700
     31 H31        -8.6271    2.4699   64.2636 H       1  ZINC000432833246    0.4000
     32 H32       -10.9504    2.5677   65.4368 H       1  ZINC000432833246    0.1300
     33 H33       -13.3443    2.9564   65.6918 H       1  ZINC000432833246    0.1400
     34 H34       -14.9641    1.8029   64.2480 H       1  ZINC000432833246    0.1400
     35 H35       -10.0903   -2.6141   61.0454 H       1  ZINC000432833246    0.1300
     36 H36       -10.4901   -1.9368   58.6336 H       1  ZINC000432833246    0.1000
     37 H37       -10.6908   -0.1807   59.1601 H       1  ZINC000432833246    0.1000
     38 H38        -8.3350   -0.1933   60.1002 H       1  ZINC000432833246    0.0900
     39 H39        -8.1343   -1.9494   59.5737 H       1  ZINC000432833246    0.1000
     40 H40        -8.3907   -0.1904   62.4750 H       1  ZINC000432833246    0.1400
     41 H41        -6.2427    1.5051   64.0541 H       1  ZINC000432833246    0.0800
     42 H42        -6.4137    3.1751   64.6721 H       1  ZINC000432833246    0.0900
     43 H43        -2.9884    2.2149   64.2395 H       1  ZINC000432833246    0.1300
     44 H44        -3.3280    4.6493   63.6116 H       1  ZINC000432833246    0.1000
     45 H45        -4.8289    4.7157   64.6813 H       1  ZINC000432833246    0.1300
     46 H46        -3.4170    4.1114   66.7001 H       1  ZINC000432833246    0.0900
     47 H47        -1.9160    4.0450   65.6304 H       1  ZINC000432833246    0.1000
@<TRIPOS>BOND
     1     1     2    2
     2     2    23   am
     3     2     3    1
     4     3     4    1
     5     3    27    1
     6     3    28    1
     7     4     5    1
     8     4     6    1
     9     4    22    1
    10     6     7    1
    11     6    29    1
    12     6    30    1
    13     7     8    1
    14     7    31    1
    15     8    21   ar
    16     8     9   ar
    17     9    15   ar
    18     9    10   ar
    19    10    11   ar
    20    10    32    1
    21    11    12   ar
    22    11    33    1
    23    12    13   ar
    24    12    34    1
    25    13    14    1
    26    13    15   ar
    27    15    16   ar
    28    16    17   ar
    29    17    18    1
    30    17    21   ar
    31    18    20    1
    32    18    19    1
    33    18    35    1
    34    19    20    1
    35    19    36    1
    36    19    37    1
    37    20    38    1
    38    20    39    1
    39    21    40    1
    40    22    23    1
    41    22    41    1
    42    22    42    1
    43    23    24    1
    44    24    26    1
    45    24    25    1
    46    24    43    1
    47    25    26    1
    48    25    44    1
    49    25    45    1
    50    26    46    1
    51    26    47    1
@<TRIPOS>SUBSTRUCTURE
     1 ZINC000432833246        1 TEMP              0 ****  ****    0 ROOT


##########                                Name:    ZINC001120957943
##########                DOCK_Rotatable_Bonds:                   4
##########                         Heavy_Atoms:                  27
##########                    Molecular_Weight:             396.802
##########                DOCK_Rotatable_Bonds:                   4
##########                       Formal_Charge:          -0.0199996
##########                     HBond_Acceptors:                  10
##########                        HBond_Donors:                   0
##########                         Heavy_Atoms:                  27
##########                          Grid_Score:          -30.029408
##########                     Grid_vdw_energy:          -29.986637
##########                      Grid_es_energy:           -0.042771
##########           Internal_energy_repulsive:            6.722015

@<TRIPOS>MOLECULE
ZINC001120957943
 43 46 1 0 0
SMALL
USER_CHARGES


@<TRIPOS>ATOM
      1 C1        -10.8721   -0.1609   58.4104 C.3     1  ZINC001120957943    0.0900
      2 N2        -10.4725   -1.1603   59.4043 N.pl3   1  ZINC001120957943   -0.6000
      3 C3        -10.4863   -2.5838   59.0582 C.3     1  ZINC001120957943    0.2200
      4 C4        -11.6742   -2.8752   58.1780 C.2     1  ZINC001120957943    0.1600
      5 N5        -11.6409   -3.3453   56.9573 N.2     1  ZINC001120957943   -0.2500
      6 N6        -12.8418   -3.4712   56.5064 N.2     1  ZINC001120957943   -0.2800
      7 C7        -13.6877   -3.0886   57.4141 C.2     1  ZINC001120957943    0.1700
      8 C8        -15.1934   -3.0540   57.3400 C.3     1  ZINC001120957943   -0.0300
      9 C9        -15.7074   -2.1661   58.4813 C.3     1  ZINC001120957943   -0.1300
     10 C10       -15.0318   -2.5830   59.7908 C.3     1  ZINC001120957943   -0.1500
     11 H11       -15.1260   -3.6613   59.9205 H       1  ZINC001120957943    0.1300
     12 C12       -15.7068   -1.8678   60.9627 C.3     1  ZINC001120957943    0.4600
     13 F13       -15.0630   -2.2160   62.1549 F       1  ZINC001120957943   -0.1700
     14 F14       -15.6237   -0.4839   60.7748 F       1  ZINC001120957943   -0.1800
     15 F15       -17.0511   -2.2494   61.0300 F       1  ZINC001120957943   -0.1800
     16 C16       -13.5474   -2.2019   59.7471 C.3     1  ZINC001120957943    0.1100
     17 N17       -12.9709   -2.7063   58.5013 N.pl3   1  ZINC001120957943   -0.4700
     18 C18       -10.0813   -0.7587   60.6731 C.ar    1  ZINC001120957943    0.3700
     19 C19        -8.7662   -1.0010   61.1069 C.ar    1  ZINC001120957943    0.0500
     20 N20        -8.3784   -0.6282   62.3027 N.ar    1  ZINC001120957943   -0.3900
     21 C21        -9.2401   -0.0108   63.1207 C.ar    1  ZINC001120957943    0.0400
     22 C22        -8.8491    0.3990   64.4065 C.ar    1  ZINC001120957943   -0.0600
     23 C23        -9.7463    1.0255   65.2179 C.ar    1  ZINC001120957943   -0.0400
     24 Cl24       -9.2578    1.5298   66.8055 Cl      1  ZINC001120957943   -0.0600
     25 C25       -11.0515    1.2678   64.7907 C.ar    1  ZINC001120957943   -0.0800
     26 C26       -11.4644    0.8846   63.5519 C.ar    1  ZINC001120957943   -0.0800
     27 C27       -10.5665    0.2353   62.6874 C.ar    1  ZINC001120957943    0.1400
     28 N28       -10.9449   -0.1473   61.4616 N.ar    1  ZINC001120957943   -0.4700
     29 H29       -11.9447    0.0181   58.4859 H       1  ZINC001120957943    0.0700
     30 H30       -10.3347    0.7694   58.5943 H       1  ZINC001120957943    0.0800
     31 H31       -10.6342   -0.5266   57.4115 H       1  ZINC001120957943    0.0700
     32 H32        -9.5691   -2.8372   58.5266 H       1  ZINC001120957943    0.1200
     33 H33       -10.5545   -3.1784   59.9692 H       1  ZINC001120957943    0.1000
     34 H34       -15.5053   -2.6388   56.3816 H       1  ZINC001120957943    0.1100
     35 H35       -15.5906   -4.0629   57.4512 H       1  ZINC001120957943    0.1000
     36 H36       -15.4717   -1.1239   58.2659 H       1  ZINC001120957943    0.0900
     37 H37       -16.7870   -2.2834   58.5756 H       1  ZINC001120957943    0.1000
     38 H38       -13.4471   -1.1172   59.7877 H       1  ZINC001120957943    0.1000
     39 H39       -13.0295   -2.6509   60.5947 H       1  ZINC001120957943    0.1100
     40 H40        -8.0692   -1.4991   60.4495 H       1  ZINC001120957943    0.1700
     41 H41        -7.8414    0.2179   64.7503 H       1  ZINC001120957943    0.1500
     42 H42       -11.7445    1.7662   65.4525 H       1  ZINC001120957943    0.1400
     43 H43       -12.4784    1.0784   63.2344 H       1  ZINC001120957943    0.1500
@<TRIPOS>BOND
     1     1     2    1
     2     1    29    1
     3     1    30    1
     4     1    31    1
     5     2     3    1
     6     2    18    1
     7     3     4    1
     8     3    32    1
     9     3    33    1
    10     4    17    1
    11     4     5    2
    12     5     6    1
    13     6     7    2
    14     7    17    1
    15     7     8    1
    16     8     9    1
    17     8    34    1
    18     8    35    1
    19     9    10    1
    20     9    36    1
    21     9    37    1
    22    10    11    1
    23    10    12    1
    24    10    16    1
    25    12    13    1
    26    12    14    1
    27    12    15    1
    28    16    17    1
    29    16    38    1
    30    16    39    1
    31    18    28   ar
    32    18    19   ar
    33    19    20   ar
    34    19    40    1
    35    20    21   ar
    36    21    27   ar
    37    21    22   ar
    38    22    23   ar
    39    22    41    1
    40    23    24    1
    41    23    25   ar
    42    25    26   ar
    43    25    42    1
    44    26    27   ar
    45    26    43    1
    46    27    28   ar
@<TRIPOS>SUBSTRUCTURE
     1 ZINC001120957943        1 TEMP              0 ****  ****    0 ROOT


##########                                Name:    ZINC000948289723
##########                DOCK_Rotatable_Bonds:                   6
##########                         Heavy_Atoms:                  24
##########                    Molecular_Weight:             331.415
##########                DOCK_Rotatable_Bonds:                   6
##########                       Formal_Charge:           0.0599999
##########                     HBond_Acceptors:                   6
##########                        HBond_Donors:                   1
##########                         Heavy_Atoms:                  24
##########                          Grid_Score:          -30.029253
##########                     Grid_vdw_energy:          -25.555141
##########                      Grid_es_energy:           -4.474112
##########           Internal_energy_repulsive:            6.295729

@<TRIPOS>MOLECULE
ZINC000948289723
 49 52 1 0 0
SMALL
USER_CHARGES


@<TRIPOS>ATOM
      1 C1        -11.9858   -1.9871   56.0955 C.3     1  ZINC000948289723   -0.1400
      2 C2        -12.4650   -1.3058   57.3790 C.3     1  ZINC000948289723   -0.1100
      3 C3        -12.3423   -2.1922   58.6296 C.3     1  ZINC000948289723   -0.1100
      4 C4        -11.8802   -0.9324   59.3808 C.3     1  ZINC000948289723   -0.1400
      5 C5        -10.7554   -1.1868   60.3511 C.2     1  ZINC000948289723    0.5400
      6 O6        -10.2191   -2.2740   60.3862 O.2     1  ZINC000948289723   -0.5300
      7 N7        -10.3456   -0.2060   61.1797 N.am    1  ZINC000948289723   -0.6200
      8 C8        -10.9049    1.1522   61.2424 C.3     1  ZINC000948289723    0.1100
      9 C9        -10.1446    1.9101   62.3509 C.3     1  ZINC000948289723   -0.1100
     10 H10        -9.3328    2.5012   61.9269 H       1  ZINC000948289723    0.1000
     11 C11       -11.0985    2.7995   63.1509 C.3     1  ZINC000948289723   -0.1400
     12 C12        -9.5854    0.7640   63.2348 C.3     1  ZINC000948289723    0.1400
     13 H13       -10.3392    0.4094   63.9376 H       1  ZINC000948289723    0.1200
     14 N14        -8.3728    1.1879   63.9392 N.am    1  ZINC000948289723   -0.7100
     15 C15        -7.9881    0.5501   65.0624 C.2     1  ZINC000948289723    0.6100
     16 O16        -8.6466   -0.3780   65.4903 O.2     1  ZINC000948289723   -0.5000
     17 C17        -6.7681    0.9780   65.7726 C.2     1  ZINC000948289723   -0.0900
     18 C18        -5.8634    1.9179   65.3602 C.2     1  ZINC000948289723   -0.1400
     19 C19        -4.9025    1.9393   66.3955 C.2     1  ZINC000948289723    0.0500
     20 C20        -3.6697    2.8036   66.4625 C.3     1  ZINC000948289723   -0.0900
     21 C21        -2.3410    2.1726   66.0414 C.3     1  ZINC000948289723   -0.1600
     22 C22        -3.0168    3.2067   65.1388 C.3     1  ZINC000948289723   -0.1600
     23 N23        -5.2900    1.0673   67.2802 N.2     1  ZINC000948289723   -0.3300
     24 O24        -6.3229    0.5268   66.9604 O.3     1  ZINC000948289723    0.1200
     25 C25        -9.2664   -0.3195   62.1777 C.3     1  ZINC000948289723    0.0900
     26 C26       -11.4098   -0.3898   58.0210 C.3     1  ZINC000948289723   -0.1200
     27 H27       -11.1121   -2.6009   56.3144 H       1  ZINC000948289723    0.0600
     28 H28       -12.7823   -2.6169   55.6993 H       1  ZINC000948289723    0.0600
     29 H29       -11.7216   -1.2287   55.3584 H       1  ZINC000948289723    0.0600
     30 H30       -13.4424   -0.8360   57.2692 H       1  ZINC000948289723    0.0900
     31 H31       -13.2963   -2.5851   58.9815 H       1  ZINC000948289723    0.0700
     32 H32       -11.5719   -2.9589   58.5475 H       1  ZINC000948289723    0.1000
     33 H33       -12.6979   -0.3619   59.8209 H       1  ZINC000948289723    0.1100
     34 H34       -10.7644    1.6555   60.2858 H       1  ZINC000948289723    0.0800
     35 H35       -11.9662    1.1052   61.4865 H       1  ZINC000948289723    0.0800
     36 H36       -11.8847    2.1858   63.5905 H       1  ZINC000948289723    0.0600
     37 H37       -10.5459    3.3046   63.9432 H       1  ZINC000948289723    0.0600
     38 H38       -11.5444    3.5417   62.4888 H       1  ZINC000948289723    0.0700
     39 H39        -7.8467    1.9276   63.5970 H       1  ZINC000948289723    0.4100
     40 H40        -5.8797    2.5058   64.4544 H       1  ZINC000948289723    0.1800
     41 H41        -3.6475    3.5286   67.2760 H       1  ZINC000948289723    0.1300
     42 H42        -1.4442    2.4824   66.5780 H       1  ZINC000948289723    0.1100
     43 H43        -2.3585    1.1325   65.7160 H       1  ZINC000948289723    0.1000
     44 H44        -3.4790    2.8470   64.2196 H       1  ZINC000948289723    0.1000
     45 H45        -2.5648    4.1969   65.0816 H       1  ZINC000948289723    0.1100
     46 H46        -9.2707   -1.3088   62.6352 H       1  ZINC000948289723    0.0900
     47 H47        -8.3021   -0.1209   61.7100 H       1  ZINC000948289723    0.0800
     48 H48       -10.3844   -0.6637   57.7725 H       1  ZINC000948289723    0.0900
     49 H49       -11.6107    0.6724   57.8816 H       1  ZINC000948289723    0.0800
@<TRIPOS>BOND
     1     1     2    1
     2     1    27    1
     3     1    28    1
     4     1    29    1
     5     2    26    1
     6     2     3    1
     7     2    30    1
     8     3     4    1
     9     3    31    1
    10     3    32    1
    11     4     5    1
    12     4    26    1
    13     4    33    1
    14     5     6    2
    15     5     7   am
    16     7    25    1
    17     7     8    1
    18     8     9    1
    19     8    34    1
    20     8    35    1
    21     9    10    1
    22     9    11    1
    23     9    12    1
    24    11    36    1
    25    11    37    1
    26    11    38    1
    27    12    13    1
    28    12    14    1
    29    12    25    1
    30    14    15   am
    31    14    39    1
    32    15    16    2
    33    15    17    1
    34    17    24    1
    35    17    18    2
    36    18    19    1
    37    18    40    1
    38    19    20    1
    39    19    23    2
    40    20    22    1
    41    20    21    1
    42    20    41    1
    43    21    22    1
    44    21    42    1
    45    21    43    1
    46    22    44    1
    47    22    45    1
    48    23    24    1
    49    25    46    1
    50    25    47    1
    51    26    48    1
    52    26    49    1
@<TRIPOS>SUBSTRUCTURE
     1 ZINC000948289723        1 TEMP              0 ****  ****    0 ROOT


##########                                Name:    ZINC000549659617
##########                DOCK_Rotatable_Bonds:                   9
##########                         Heavy_Atoms:                  28
##########                    Molecular_Weight:              418.48
##########                DOCK_Rotatable_Bonds:                   9
##########                       Formal_Charge:          0.00999956
##########                     HBond_Acceptors:                   9
##########                        HBond_Donors:                   1
##########                         Heavy_Atoms:                  28
##########                          Grid_Score:          -30.028650
##########                     Grid_vdw_energy:          -28.762360
##########                      Grid_es_energy:           -1.266290
##########           Internal_energy_repulsive:           18.198740

@<TRIPOS>MOLECULE
ZINC000549659617
 53 55 1 0 0
SMALL
USER_CHARGES


@<TRIPOS>ATOM
      1 C1         -8.5815   -1.3051   59.7788 C.3     1  ZINC000549659617   -0.1500
      2 C2         -8.9939   -1.1145   61.2399 C.3     1  ZINC000549659617   -0.1500
      3 C3         -9.4194    0.3379   61.4642 C.3     1  ZINC000549659617    0.1100
      4 N4        -10.4128    0.3952   62.5395 N.am    1  ZINC000549659617   -0.6100
      5 C5        -11.7056    0.1183   62.2780 C.2     1  ZINC000549659617    0.7100
      6 O6        -12.5298    0.1643   63.1706 O.2     1  ZINC000549659617   -0.5700
      7 N7        -12.0848   -0.2095   61.0269 N.am    1  ZINC000549659617   -0.7400
      8 C8        -13.4898   -0.5121   60.7430 C.3     1  ZINC000549659617    0.2300
      9 H9        -14.1245    0.2479   61.1987 H       1  ZINC000549659617    0.1100
     10 C10       -13.7102   -0.5224   59.2522 C.ar    1  ZINC000549659617   -0.0900
     11 C11       -14.4149    0.5032   58.6507 C.ar    1  ZINC000549659617   -0.0800
     12 C12       -14.6170    0.4938   57.2830 C.ar    1  ZINC000549659617   -0.1100
     13 C13       -14.1139   -0.5411   56.5172 C.ar    1  ZINC000549659617   -0.0700
     14 C14       -13.4082   -1.5665   57.1188 C.ar    1  ZINC000549659617   -0.1800
     15 C15       -12.8601   -2.6950   56.2839 C.3     1  ZINC000549659617    0.5100
     16 F16       -13.8052   -3.7240   56.2125 F       1  ZINC000549659617   -0.1800
     17 F17       -12.5805   -2.2283   54.9949 F       1  ZINC000549659617   -0.1700
     18 F18       -11.6857   -3.1803   56.8690 F       1  ZINC000549659617   -0.1700
     19 C19       -13.2025   -1.5549   58.4855 C.ar    1  ZINC000549659617   -0.0500
     20 C20       -13.8427   -1.8845   61.3202 C.3     1  ZINC000549659617   -0.1700
     21 C21       -14.7897   -1.9234   62.5212 C.3     1  ZINC000549659617   -0.1700
     22 C22       -15.2809   -2.3761   61.1447 C.3     1  ZINC000549659617   -0.1800
     23 C23       -10.0008    0.7532   63.8991 C.3     1  ZINC000549659617    0.1700
     24 H24       -10.7615    0.4398   64.6140 H       1  ZINC000549659617    0.1100
     25 C25        -9.7776    2.2724   63.9992 C.3     1  ZINC000549659617   -0.1400
     26 C26        -9.0287    2.5766   65.3119 C.3     1  ZINC000549659617   -0.5900
     27 S27        -8.0573    1.0678   65.6664 S.o2    1  ZINC000549659617    2.3900
     28 O28        -6.6737    1.3502   65.5074 O.2     1  ZINC000549659617   -0.9300
     29 O29        -8.5253    0.4788   66.8721 O.2     1  ZINC000549659617   -0.9400
     30 C30        -8.6451    0.0813   64.2374 C.3     1  ZINC000549659617   -0.6100
     31 H31        -8.2783   -2.3398   59.6189 H       1  ZINC000549659617    0.0600
     32 H32        -9.4246   -1.0690   59.1296 H       1  ZINC000549659617    0.0600
     33 H33        -7.7478   -0.6423   59.5471 H       1  ZINC000549659617    0.0600
     34 H34        -9.8276   -1.7773   61.4716 H       1  ZINC000549659617    0.0700
     35 H35        -8.1507   -1.3505   61.8891 H       1  ZINC000549659617    0.0700
     36 H36        -8.5491    0.9329   61.7415 H       1  ZINC000549659617    0.0800
     37 H37        -9.8538    0.7352   60.5468 H       1  ZINC000549659617    0.0900
     38 H38       -11.4275   -0.2450   60.3144 H       1  ZINC000549659617    0.4000
     39 H39       -14.8080    1.3117   59.2491 H       1  ZINC000549659617    0.1300
     40 H40       -15.1683    1.2947   56.8131 H       1  ZINC000549659617    0.1400
     41 H41       -14.2724   -0.5488   55.4489 H       1  ZINC000549659617    0.1400
     42 H42       -12.6512   -2.3558   58.9554 H       1  ZINC000549659617    0.1400
     43 H43       -13.0479   -2.6293   61.2812 H       1  ZINC000549659617    0.1100
     44 H44       -14.6179   -2.6940   63.2728 H       1  ZINC000549659617    0.0900
     45 H45       -15.1614   -0.9714   62.9002 H       1  ZINC000549659617    0.0900
     46 H46       -15.9756   -1.7218   60.6181 H       1  ZINC000549659617    0.1200
     47 H47       -15.4322   -3.4445   60.9906 H       1  ZINC000549659617    0.0900
     48 H48        -9.1832    2.6122   63.1510 H       1  ZINC000549659617    0.1100
     49 H49       -10.7396    2.7850   63.9988 H       1  ZINC000549659617    0.0900
     50 H50        -8.3654    3.4315   65.1800 H       1  ZINC000549659617    0.1400
     51 H51        -9.7382    2.7677   66.1169 H       1  ZINC000549659617    0.1400
     52 H52        -8.7888   -0.9615   64.5200 H       1  ZINC000549659617    0.1400
     53 H53        -7.9532    0.1643   63.3993 H       1  ZINC000549659617    0.1600
@<TRIPOS>BOND
     1     1     2    1
     2     1    31    1
     3     1    32    1
     4     1    33    1
     5     2     3    1
     6     2    34    1
     7     2    35    1
     8     3     4    1
     9     3    36    1
    10     3    37    1
    11     4     5   am
    12     4    23    1
    13     5     6    2
    14     5     7   am
    15     7     8    1
    16     7    38    1
    17     8     9    1
    18     8    10    1
    19     8    20    1
    20    10    19   ar
    21    10    11   ar
    22    11    12   ar
    23    11    39    1
    24    12    13   ar
    25    12    40    1
    26    13    14   ar
    27    13    41    1
    28    14    15    1
    29    14    19   ar
    30    15    16    1
    31    15    17    1
    32    15    18    1
    33    19    42    1
    34    20    22    1
    35    20    21    1
    36    20    43    1
    37    21    22    1
    38    21    44    1
    39    21    45    1
    40    22    46    1
    41    22    47    1
    42    23    24    1
    43    23    30    1
    44    23    25    1
    45    25    26    1
    46    25    48    1
    47    25    49    1
    48    26    27    1
    49    26    50    1
    50    26    51    1
    51    27    28    2
    52    27    29    2
    53    27    30    1
    54    30    52    1
    55    30    53    1
@<TRIPOS>SUBSTRUCTURE
     1 ZINC000549659617        1 TEMP              0 ****  ****    0 ROOT


##########                                Name:    ZINC000847397179
##########                DOCK_Rotatable_Bonds:                   9
##########                         Heavy_Atoms:                  25
##########                    Molecular_Weight:             350.461
##########                DOCK_Rotatable_Bonds:                   9
##########                       Formal_Charge:          0.00999979
##########                     HBond_Acceptors:                   7
##########                        HBond_Donors:                   2
##########                         Heavy_Atoms:                  25
##########                          Grid_Score:          -30.024391
##########                     Grid_vdw_energy:          -28.413315
##########                      Grid_es_energy:           -1.611076
##########           Internal_energy_repulsive:           85.859779

@<TRIPOS>MOLECULE
ZINC000847397179
 55 56 1 0 0
SMALL
USER_CHARGES


@<TRIPOS>ATOM
      1 C1        -13.5302   -0.7669   52.3574 C.3     1  ZINC000847397179   -0.1500
      2 C2        -12.1346   -0.2508   52.7131 C.3     1  ZINC000847397179   -0.1000
      3 H3        -12.0343    0.7829   52.3823 H       1  ZINC000847397179    0.0900
      4 C4        -11.0794   -1.1134   52.0178 C.3     1  ZINC000847397179   -0.0200
      5 C5         -9.7257   -0.4682   52.1663 C.2     1  ZINC000847397179    0.0100
      6 C6         -9.4825    0.8547   52.2323 C.2     1  ZINC000847397179   -0.0500
      7 N7         -8.1281    1.0022   52.3655 N.pl3   1  ZINC000847397179   -0.5700
      8 C8         -7.5905   -0.2364   52.3762 C.2     1  ZINC000847397179    0.1800
      9 N9         -8.5524   -1.1110   52.2617 N.2     1  ZINC000847397179   -0.4900
     10 C10       -11.9379   -0.3221   54.2055 C.2     1  ZINC000847397179    0.5200
     11 O11       -12.5841   -1.1081   54.8654 O.2     1  ZINC000847397179   -0.5300
     12 N12       -11.0440    0.4876   54.8068 N.am    1  ZINC000847397179   -0.7400
     13 C13       -10.8540    0.4196   56.2579 C.3     1  ZINC000847397179    0.1200
     14 C14        -9.6169    1.2304   56.6489 C.3     1  ZINC000847397179    0.1500
     15 H15        -8.7265    0.7652   56.2261 H       1  ZINC000847397179    0.0800
     16 C16        -9.7510    2.6607   56.1168 C.3     1  ZINC000847397179   -0.1300
     17 C17        -8.5799    3.5029   56.6279 C.3     1  ZINC000847397179   -0.1200
     18 C18        -8.6134    3.5513   58.1572 C.3     1  ZINC000847397179   -0.1400
     19 C19        -8.4663    2.1312   58.7125 C.3     1  ZINC000847397179    0.1100
     20 N20        -9.5006    1.2764   58.1128 N.am    1  ZINC000847397179   -0.5900
     21 C21       -10.3295    0.5529   58.8910 C.2     1  ZINC000847397179    0.6500
     22 O22       -11.1807   -0.1500   58.3831 O.2     1  ZINC000847397179   -0.5500
     23 O23       -10.2147    0.6088   60.2313 O.3     1  ZINC000847397179   -0.3600
     24 C24        -9.7331   -0.5855   60.9021 C.3     1  ZINC000847397179    0.1400
     25 C25       -10.8966   -1.5564   61.1128 C.3     1  ZINC000847397179   -0.1800
     26 C26        -8.6590   -1.2553   60.0427 C.3     1  ZINC000847397179   -0.1400
     27 C27        -9.1361   -0.2031   62.2581 C.3     1  ZINC000847397179   -0.1800
     28 H28       -13.6307   -1.8006   52.6881 H       1  ZINC000847397179    0.0500
     29 H29       -14.2820   -0.1523   52.8527 H       1  ZINC000847397179    0.0500
     30 H30       -13.6725   -0.7154   51.2779 H       1  ZINC000847397179    0.1000
     31 H31       -11.0619   -2.1036   52.4732 H       1  ZINC000847397179    0.0800
     32 H32       -11.3244   -1.2046   50.9596 H       1  ZINC000847397179    0.0800
     33 H33       -10.2151    1.6470   52.1882 H       1  ZINC000847397179    0.1800
     34 H34        -7.6449    1.8402   52.4384 H       1  ZINC000847397179    0.4200
     35 H35        -6.5391   -0.4656   52.4684 H       1  ZINC000847397179    0.2100
     36 H36       -10.5263    1.1154   54.2788 H       1  ZINC000847397179    0.3900
     37 H37       -11.7308    0.8300   56.7587 H       1  ZINC000847397179    0.0800
     38 H38       -10.7173   -0.6194   56.5580 H       1  ZINC000847397179    0.1000
     39 H39        -9.7401    2.6459   55.0269 H       1  ZINC000847397179    0.0800
     40 H40       -10.6891    3.0922   56.4658 H       1  ZINC000847397179    0.0700
     41 H41        -7.6412    3.0569   56.2993 H       1  ZINC000847397179    0.0700
     42 H42        -8.6597    4.5147   56.2307 H       1  ZINC000847397179    0.0700
     43 H43        -7.7929    4.1705   58.5197 H       1  ZINC000847397179    0.0800
     44 H44        -9.5623    3.9745   58.4871 H       1  ZINC000847397179    0.0700
     45 H45        -7.4808    1.7403   58.4599 H       1  ZINC000847397179    0.0700
     46 H46        -8.5887    2.1478   59.7954 H       1  ZINC000847397179    0.0900
     47 H47       -11.3219   -1.8288   60.1469 H       1  ZINC000847397179    0.0600
     48 H48       -10.5351   -2.4530   61.6165 H       1  ZINC000847397179    0.0700
     49 H49       -11.6618   -1.0792   61.7251 H       1  ZINC000847397179    0.0900
     50 H50        -7.8301   -0.5635   59.8927 H       1  ZINC000847397179    0.0700
     51 H51        -8.2976   -2.1518   60.5464 H       1  ZINC000847397179    0.0800
     52 H52        -9.0843   -1.5277   59.0768 H       1  ZINC000847397179    0.0700
     53 H53        -9.9014    0.2740   62.8704 H       1  ZINC000847397179    0.0900
     54 H54        -8.7746   -1.0997   62.7618 H       1  ZINC000847397179    0.0700
     55 H55        -8.3072    0.4886   62.1081 H       1  ZINC000847397179    0.0600
@<TRIPOS>BOND
     1     1     2    1
     2     1    28    1
     3     1    29    1
     4     1    30    1
     5     2     3    1
     6     2     4    1
     7     2    10    1
     8     4     5    1
     9     4    31    1
    10     4    32    1
    11     5     9    1
    12     5     6    2
    13     6     7    1
    14     6    33    1
    15     7     8    1
    16     7    34    1
    17     8     9    2
    18     8    35    1
    19    10    11    2
    20    10    12   am
    21    12    13    1
    22    12    36    1
    23    13    14    1
    24    13    37    1
    25    13    38    1
    26    14    15    1
    27    14    20    1
    28    14    16    1
    29    16    17    1
    30    16    39    1
    31    16    40    1
    32    17    18    1
    33    17    41    1
    34    17    42    1
    35    18    19    1
    36    18    43    1
    37    18    44    1
    38    19    20    1
    39    19    45    1
    40    19    46    1
    41    20    21   am
    42    21    22    2
    43    21    23    1
    44    23    24    1
    45    24    25    1
    46    24    26    1
    47    24    27    1
    48    25    47    1
    49    25    48    1
    50    25    49    1
    51    26    50    1
    52    26    51    1
    53    26    52    1
    54    27    53    1
    55    27    54    1
    56    27    55    1
@<TRIPOS>SUBSTRUCTURE
     1 ZINC000847397179        1 TEMP              0 ****  ****    0 ROOT


##########                                Name:    ZINC000751548479
##########                DOCK_Rotatable_Bonds:                   9
##########                         Heavy_Atoms:                  27
##########                    Molecular_Weight:             389.407
##########                DOCK_Rotatable_Bonds:                   9
##########                       Formal_Charge:           0.0199995
##########                     HBond_Acceptors:                   9
##########                        HBond_Donors:                   2
##########                         Heavy_Atoms:                  27
##########                          Grid_Score:          -30.000826
##########                     Grid_vdw_energy:          -29.460783
##########                      Grid_es_energy:           -0.540042
##########           Internal_energy_repulsive:           12.614330

@<TRIPOS>MOLECULE
ZINC000751548479
 43 44 1 0 0
SMALL
USER_CHARGES


@<TRIPOS>ATOM
      1 C1        -11.6397   -2.8000   53.3437 C.3     1  ZINC000751548479   -0.1600
      2 C2        -12.4247   -1.5689   52.8863 C.3     1  ZINC000751548479    0.0800
      3 O3        -12.0809   -0.4360   53.7268 O.3     1  ZINC000751548479   -0.3600
      4 C4        -10.8398    0.0693   53.5941 C.2     1  ZINC000751548479    0.6500
      5 O5        -10.1712    0.3050   54.5809 O.2     1  ZINC000751548479   -0.5400
      6 N6        -10.3395    0.3136   52.3668 N.am    1  ZINC000751548479   -0.6500
      7 C7         -9.0524    0.8376   52.2291 C.ar    1  ZINC000751548479    0.2000
      8 C8         -7.9962    0.0062   51.8857 C.ar    1  ZINC000751548479   -0.1000
      9 C9         -6.7232    0.5226   51.7491 C.ar    1  ZINC000751548479   -0.1000
     10 C10        -6.4893    1.8781   51.9543 C.ar    1  ZINC000751548479    0.1300
     11 N11        -5.1953    2.3920   51.8139 N.am    1  ZINC000751548479   -1.0500
     12 S12        -4.7971    3.2776   50.4725 S.o2    1  ZINC000751548479    2.6800
     13 O13        -4.8543    2.3833   49.3697 O.2     1  ZINC000751548479   -0.9500
     14 O14        -5.5581    4.4755   50.5420 O.2     1  ZINC000751548479   -0.9400
     15 C15        -3.1082    3.7506   50.6423 C.2     1  ZINC000751548479   -0.7500
     16 C16        -2.1753    2.8253   50.8190 C.2     1  ZINC000751548479    0.0700
     17 C17        -0.7585    3.2218   50.9597 C.ar    1  ZINC000751548479   -0.1100
     18 C18        -0.4233    4.5607   51.1662 C.ar    1  ZINC000751548479   -0.0600
     19 C19         0.9005    4.9253   51.2973 C.ar    1  ZINC000751548479   -0.1600
     20 C20         1.8968    3.9650   51.2237 C.ar    1  ZINC000751548479    0.1200
     21 F21         3.1919    4.3275   51.3523 F       1  ZINC000751548479   -0.1300
     22 C22         1.5694    2.6342   51.0193 C.ar    1  ZINC000751548479   -0.1600
     23 C23         0.2485    2.2580   50.8921 C.ar    1  ZINC000751548479   -0.0500
     24 C24        -7.5336    2.7206   52.2967 C.ar    1  ZINC000751548479   -0.0600
     25 C25        -8.8251    2.2069   52.4319 C.ar    1  ZINC000751548479   -0.0300
     26 C26        -9.9102    3.0718   52.7852 C.1     1  ZINC000751548479    0.2500
     27 N27       -10.7711    3.7580   53.0655 N.1     1  ZINC000751548479   -0.4000
     28 H28       -11.8910   -3.0268   54.3797 H       1  ZINC000751548479    0.0700
     29 H29       -11.8979   -3.6505   52.7127 H       1  ZINC000751548479    0.0900
     30 H30       -10.5712   -2.5998   53.2643 H       1  ZINC000751548479    0.0700
     31 H31       -12.1736   -1.3422   51.8501 H       1  ZINC000751548479    0.0800
     32 H32       -13.4932   -1.7692   52.9656 H       1  ZINC000751548479    0.0800
     33 H33       -10.8733    0.1255   51.5791 H       1  ZINC000751548479    0.4200
     34 H34        -8.1702   -1.0475   51.7252 H       1  ZINC000751548479    0.1600
     35 H35        -5.9047   -0.1295   51.4820 H       1  ZINC000751548479    0.1700
     36 H36        -4.5315    2.2294   52.5023 H       1  ZINC000751548479    0.4300
     37 H37        -2.8331    4.7941   50.6025 H       1  ZINC000751548479    0.1700
     38 H38        -2.4506    1.7818   50.8602 H       1  ZINC000751548479    0.1500
     39 H39        -1.1990    5.3100   51.2230 H       1  ZINC000751548479    0.1400
     40 H40         1.1610    5.9612   51.4571 H       1  ZINC000751548479    0.1400
     41 H41         2.3497    1.8896   50.9630 H       1  ZINC000751548479    0.1400
     42 H42        -0.0057    1.2205   50.7331 H       1  ZINC000751548479    0.1400
     43 H43        -7.3503    3.7730   52.4556 H       1  ZINC000751548479    0.1500
@<TRIPOS>BOND
     1     1     2    1
     2     1    28    1
     3     1    29    1
     4     1    30    1
     5     2     3    1
     6     2    31    1
     7     2    32    1
     8     3     4    1
     9     4     5    2
    10     4     6   am
    11     6     7    1
    12     6    33    1
    13     7    25   ar
    14     7     8   ar
    15     8     9   ar
    16     8    34    1
    17     9    10   ar
    18     9    35    1
    19    10    11    1
    20    10    24   ar
    21    11    12   am
    22    11    36    1
    23    12    13    2
    24    12    14    2
    25    12    15    1
    26    15    16    2
    27    15    37    1
    28    16    17    1
    29    16    38    1
    30    17    23   ar
    31    17    18   ar
    32    18    19   ar
    33    18    39    1
    34    19    20   ar
    35    19    40    1
    36    20    21    1
    37    20    22   ar
    38    22    23   ar
    39    22    41    1
    40    23    42    1
    41    24    25   ar
    42    24    43    1
    43    25    26    1
    44    26    27    3
@<TRIPOS>SUBSTRUCTURE
     1 ZINC000751548479        1 TEMP              0 ****  ****    0 ROOT


##########                                Name:    ZINC000342525234
##########                DOCK_Rotatable_Bonds:                   6
##########                         Heavy_Atoms:                  25
##########                    Molecular_Weight:             333.349
##########                DOCK_Rotatable_Bonds:                   6
##########                       Formal_Charge:           0.0500003
##########                     HBond_Acceptors:                   7
##########                        HBond_Donors:                   2
##########                         Heavy_Atoms:                  25
##########                          Grid_Score:          -29.993689
##########                     Grid_vdw_energy:          -27.643475
##########                      Grid_es_energy:           -2.350214
##########           Internal_energy_repulsive:            7.018039

@<TRIPOS>MOLECULE
ZINC000342525234
 40 43 1 0 0
SMALL
USER_CHARGES


@<TRIPOS>ATOM
      1 O1         -5.0927    2.3452   49.6123 O.2     1  <0>        -0.5100
      2 C2         -4.5820    2.2410   50.7098 C.2     1  <0>         0.6000
      3 N3         -5.2491    1.6287   51.7081 N.am    1  <0>        -0.7100
      4 C4         -6.5925    1.0944   51.4716 C.3     1  <0>         0.1200
      5 C5         -7.6165    1.9287   52.2438 C.3     1  <0>        -0.0900
      6 C6         -8.9547    1.2363   52.2125 C.ar    1  <0>        -0.0400
      7 C7         -9.0319   -0.0664   52.5822 C.ar    1  <0>        -0.1000
      8 C8        -10.2800   -0.7253   52.5569 C.ar    1  <0>         0.1100
      9 N9        -10.6909   -1.9472   52.8437 N.2     1  <0>        -0.3100
     10 N10       -12.0709   -2.0261   52.6242 N.pl3   1  <0>        -0.4200
     11 C11       -12.5341   -0.8442   52.1954 C.2     1  <0>         0.0900
     12 C12       -11.4661    0.0310   52.1260 C.ar    1  <0>        -0.2100
     13 C13       -11.3112    1.3838   51.7552 C.ar    1  <0>        -0.0400
     14 C14       -10.0821    1.9554   51.8090 C.ar    1  <0>        -0.1500
     15 C15        -3.2217    2.7820   50.9493 C.2     1  <0>        -0.0200
     16 N16        -2.4167    3.3075   50.0585 N.2     1  <0>        -0.3200
     17 O17        -1.3718    3.6616   50.5522 O.3     1  <0>         0.1400
     18 C18        -1.3360    3.4144   51.8735 C.2     1  <0>         0.0100
     19 C19        -0.2230    3.7117   52.8009 C.ar    1  <0>         0.0200
     20 C20        -0.4053    3.6479   54.1871 C.ar    1  <0>        -0.1400
     21 C21         0.6605    3.9328   55.0156 C.ar    1  <0>         0.1100
     22 N22         1.8370    4.2616   54.5173 N.ar    1  <0>        -0.4800
     23 C23         2.0516    4.3335   53.2176 C.ar    1  <0>         0.1100
     24 C24         1.0433    4.0592   52.3168 C.ar    1  <0>        -0.1500
     25 C25        -2.5347    2.8395   52.1904 C.2     1  <0>        -0.1500
     26 H26        -4.8398    1.5420   52.5832 H       1  <0>         0.4100
     27 H27        -6.8182    1.1372   50.4061 H       1  <0>         0.0800
     28 H28        -6.6368    0.0596   51.8111 H       1  <0>         0.0800
     29 H29        -7.2891    2.0401   53.2774 H       1  <0>         0.0900
     30 H30        -7.7055    2.9124   51.7827 H       1  <0>         0.0800
     31 H31        -8.1440   -0.5964   52.8937 H       1  <0>         0.1300
     32 H32       -12.6120   -2.8192   52.7619 H       1  <0>         0.4500
     33 H33       -13.5601   -0.6158   51.9476 H       1  <0>         0.1900
     34 H34       -12.1659    1.9614   51.4352 H       1  <0>         0.1300
     35 H35        -9.9710    2.9912   51.5241 H       1  <0>         0.1200
     36 H36        -1.3658    3.3801   54.6019 H       1  <0>         0.1400
     37 H37         0.5299    3.8862   56.0867 H       1  <0>         0.1700
     38 H38         3.0310    4.6068   52.8539 H       1  <0>         0.1700
     39 H39         1.2262    4.1200   51.2541 H       1  <0>         0.1500
     40 H40        -2.8768    2.5020   53.1576 H       1  <0>         0.1900
@<TRIPOS>BOND
     1     1     2    2
     2     2     3   am
     3     2    15    1
     4     3     4    1
     5     3    26    1
     6     4     5    1
     7     4    27    1
     8     4    28    1
     9     5     6    1
    10     5    29    1
    11     5    30    1
    12     6    14   ar
    13     6     7   ar
    14     7     8   ar
    15     7    31    1
    16     8    12   ar
    17     8     9    2
    18     9    10    1
    19    10    11    1
    20    10    32    1
    21    11    12    2
    22    11    33    1
    23    12    13   ar
    24    13    14   ar
    25    13    34    1
    26    14    35    1
    27    15    25    1
    28    15    16    2
    29    16    17    1
    30    17    18    1
    31    18    19    1
    32    18    25    2
    33    19    24   ar
    34    19    20   ar
    35    20    21   ar
    36    20    36    1
    37    21    22   ar
    38    21    37    1
    39    22    23   ar
    40    23    24   ar
    41    23    38    1
    42    24    39    1
    43    25    40    1
@<TRIPOS>SUBSTRUCTURE
     1 <0>         1 TEMP              0 ****  ****    0 ROOT


##########                                Name:    ZINC001296589646
##########                DOCK_Rotatable_Bonds:                   8
##########                         Heavy_Atoms:                  29
##########                    Molecular_Weight:             398.548
##########                DOCK_Rotatable_Bonds:                   8
##########                       Formal_Charge:          -0.0200008
##########                     HBond_Acceptors:                   6
##########                        HBond_Donors:                   0
##########                         Heavy_Atoms:                  29
##########                          Grid_Score:          -29.983316
##########                     Grid_vdw_energy:          -28.740065
##########                      Grid_es_energy:           -1.243251
##########           Internal_energy_repulsive:           19.812319

@<TRIPOS>MOLECULE
ZINC001296589646
 63 66 1 0 0
SMALL
USER_CHARGES


@<TRIPOS>ATOM
      1 C1        -13.8194    4.4805   61.7303 C.3     1  ZINC001296589646   -0.1500
      2 C2        -13.9179    3.1005   62.3836 C.3     1  ZINC001296589646    0.0500
      3 O3        -12.6301    2.7069   62.8618 O.3     1  ZINC001296589646   -0.3600
      4 C4        -12.6469    1.5352   63.6797 C.3     1  ZINC001296589646    0.1800
      5 C5        -13.5015    0.4615   63.0568 C.2     1  ZINC001296589646    0.1500
      6 N6        -14.5694   -0.0740   63.5768 N.2     1  ZINC001296589646   -0.2600
      7 N7        -15.0524   -0.9580   62.7785 N.2     1  ZINC001296589646   -0.3200
      8 C8        -14.3125   -1.0344   61.6976 C.2     1  ZINC001296589646    0.3600
      9 N9        -14.5202   -1.8740   60.6147 N.3     1  ZINC001296589646   -0.4300
     10 C10       -15.4229   -2.9964   60.9767 C.3     1  ZINC001296589646    0.0300
     11 C11       -15.9487   -3.4855   59.6039 C.3     1  ZINC001296589646   -0.1200
     12 C12       -16.1164   -2.1701   58.8092 C.3     1  ZINC001296589646   -0.1000
     13 H13       -17.1513   -1.8309   58.8531 H       1  ZINC001296589646    0.0800
     14 C14       -15.6849   -2.3694   57.3550 C.3     1  ZINC001296589646   -0.1400
     15 C15       -15.1918   -1.1568   59.5092 C.3     1  ZINC001296589646    0.0500
     16 N16       -13.3032   -0.1270   61.8386 N.pl3   1  ZINC001296589646   -0.4600
     17 C17       -12.2250    0.1517   60.8867 C.3     1  ZINC001296589646    0.1000
     18 C18       -11.1586   -0.9406   60.9898 C.3     1  ZINC001296589646   -0.1300
     19 C19       -10.1498   -0.7774   59.8512 C.3     1  ZINC001296589646   -0.0500
     20 H20        -9.9818    0.2830   59.6638 H       1  ZINC001296589646    0.0800
     21 C21        -8.8282   -1.4421   60.2415 C.3     1  ZINC001296589646   -0.1500
     22 C22       -10.6904   -1.4283   58.6041 C.ar    1  ZINC001296589646   -0.0800
     23 C23       -10.7569   -2.8064   58.5169 C.ar    1  ZINC001296589646   -0.1100
     24 C24       -11.2528   -3.4034   57.3730 C.ar    1  ZINC001296589646   -0.1200
     25 C25       -11.6824   -2.6224   56.3164 C.ar    1  ZINC001296589646   -0.1200
     26 C26       -11.6166   -1.2444   56.4039 C.ar    1  ZINC001296589646   -0.1200
     27 C27       -11.1248   -0.6473   57.5495 C.ar    1  ZINC001296589646   -0.1200
     28 C28       -13.1331    1.8707   65.1161 C.3     1  ZINC001296589646   -0.1400
     29 C29       -11.8139    2.3579   65.7668 C.3     1  ZINC001296589646    0.0600
     30 O30       -10.7876    1.5272   65.2010 O.3     1  ZINC001296589646   -0.3700
     31 C31       -11.2136    1.0199   63.9310 C.3     1  ZINC001296589646    0.0400
     32 H32       -13.5523    5.2211   62.4841 H       1  ZINC001296589646    0.0600
     33 H33       -13.0552    4.4609   60.9533 H       1  ZINC001296589646    0.0700
     34 H34       -14.7806    4.7426   61.2880 H       1  ZINC001296589646    0.0700
     35 H35       -14.6180    3.1426   63.2180 H       1  ZINC001296589646    0.0500
     36 H36       -14.2703    2.3755   61.6500 H       1  ZINC001296589646    0.0600
     37 H37       -14.8691   -3.7883   61.4810 H       1  ZINC001296589646    0.0900
     38 H38       -16.2447   -2.6435   61.5999 H       1  ZINC001296589646    0.0600
     39 H39       -15.2201   -4.1372   59.1217 H       1  ZINC001296589646    0.0800
     40 H40       -16.9069   -3.9930   59.7163 H       1  ZINC001296589646    0.0800
     41 H41       -16.3175   -3.1248   56.8886 H       1  ZINC001296589646    0.0600
     42 H42       -15.7842   -1.4283   56.8143 H       1  ZINC001296589646    0.0600
     43 H43       -14.6458   -2.6974   57.3259 H       1  ZINC001296589646    0.0600
     44 H44       -15.7803   -0.3298   59.9064 H       1  ZINC001296589646    0.0800
     45 H45       -14.4495   -0.7827   58.8041 H       1  ZINC001296589646    0.0900
     46 H46       -12.6294    0.1704   59.8747 H       1  ZINC001296589646    0.1100
     47 H47       -11.7779    1.1188   61.1171 H       1  ZINC001296589646    0.1000
     48 H48       -10.6434   -0.8562   61.9466 H       1  ZINC001296589646    0.0800
     49 H49       -11.6330   -1.9193   60.9176 H       1  ZINC001296589646    0.0700
     50 H50        -8.1095   -1.3260   59.4303 H       1  ZINC001296589646    0.0600
     51 H51        -8.4373   -0.9713   61.1435 H       1  ZINC001296589646    0.0600
     52 H52        -8.9963   -2.5027   60.4289 H       1  ZINC001296589646    0.0600
     53 H53       -10.4213   -3.4165   59.3425 H       1  ZINC001296589646    0.1200
     54 H54       -11.3042   -4.4800   57.3047 H       1  ZINC001296589646    0.1200
     55 H55       -12.0691   -3.0889   55.4224 H       1  ZINC001296589646    0.1200
     56 H56       -11.9519   -0.6343   55.5782 H       1  ZINC001296589646    0.1200
     57 H57       -11.0734    0.4293   57.6178 H       1  ZINC001296589646    0.1200
     58 H58       -13.8807    2.6639   65.1025 H       1  ZINC001296589646    0.1000
     59 H59       -13.5147    0.9824   65.6192 H       1  ZINC001296589646    0.1000
     60 H60       -11.6335    3.4039   65.5189 H       1  ZINC001296589646    0.0700
     61 H61       -11.8542    2.2259   66.8480 H       1  ZINC001296589646    0.0900
     62 H62       -11.2102   -0.0700   63.9482 H       1  ZINC001296589646    0.1000
     63 H63       -10.5481    1.3806   63.1467 H       1  ZINC001296589646    0.0800
@<TRIPOS>BOND
     1     1     2    1
     2     1    32    1
     3     1    33    1
     4     1    34    1
     5     2     3    1
     6     2    35    1
     7     2    36    1
     8     3     4    1
     9     4    31    1
    10     4     5    1
    11     4    28    1
    12     5    16    1
    13     5     6    2
    14     6     7    1
    15     7     8    2
    16     8     9    1
    17     8    16    1
    18     9    15    1
    19     9    10    1
    20    10    11    1
    21    10    37    1
    22    10    38    1
    23    11    12    1
    24    11    39    1
    25    11    40    1
    26    12    13    1
    27    12    14    1
    28    12    15    1
    29    14    41    1
    30    14    42    1
    31    14    43    1
    32    15    44    1
    33    15    45    1
    34    16    17    1
    35    17    18    1
    36    17    46    1
    37    17    47    1
    38    18    19    1
    39    18    48    1
    40    18    49    1
    41    19    20    1
    42    19    21    1
    43    19    22    1
    44    21    50    1
    45    21    51    1
    46    21    52    1
    47    22    27   ar
    48    22    23   ar
    49    23    24   ar
    50    23    53    1
    51    24    25   ar
    52    24    54    1
    53    25    26   ar
    54    25    55    1
    55    26    27   ar
    56    26    56    1
    57    27    57    1
    58    28    29    1
    59    28    58    1
    60    28    59    1
    61    29    30    1
    62    29    60    1
    63    29    61    1
    64    30    31    1
    65    31    62    1
    66    31    63    1
@<TRIPOS>SUBSTRUCTURE
     1 ZINC001296589646        1 TEMP              0 ****  ****    0 ROOT


##########                                Name:    ZINC001291841503
##########                DOCK_Rotatable_Bonds:                   7
##########                         Heavy_Atoms:                  28
##########                    Molecular_Weight:             397.544
##########                DOCK_Rotatable_Bonds:                   7
##########                       Formal_Charge:         -0.00999964
##########                     HBond_Acceptors:                   7
##########                        HBond_Donors:                   0
##########                         Heavy_Atoms:                  28
##########                          Grid_Score:          -29.969934
##########                     Grid_vdw_energy:          -29.338650
##########                      Grid_es_energy:           -0.631285
##########           Internal_energy_repulsive:           18.665998

@<TRIPOS>MOLECULE
ZINC001291841503
 55 58 1 0 0
SMALL
USER_CHARGES


@<TRIPOS>ATOM
      1 C1         -9.4446    0.3937   64.0357 C.3     1  ZINC001291841503   -0.1500
      2 C2         -9.5867    1.2614   62.7835 C.3     1  ZINC001291841503   -0.1100
      3 C3         -9.7888    0.3637   61.5612 C.3     1  ZINC001291841503    0.0500
      4 H4         -9.2051   -0.5491   61.6802 H       1  ZINC001291841503    0.0900
      5 C5        -11.2486    0.0130   61.4314 C.2     1  ZINC001291841503    0.2000
      6 N6        -12.2568    0.7701   61.7602 N.2     1  ZINC001291841503   -0.2700
      7 N7        -13.3626    0.1612   61.5181 N.2     1  ZINC001291841503   -0.3100
      8 C8        -13.1171   -1.0267   61.0176 C.2     1  ZINC001291841503    0.3600
      9 N9        -14.0576   -1.9694   60.6337 N.3     1  ZINC001291841503   -0.4500
     10 C10       -14.4862   -2.7824   61.7797 C.3     1  ZINC001291841503    0.0200
     11 C11       -15.2084   -1.3298   59.9823 C.3     1  ZINC001291841503    0.0700
     12 H12       -15.6676   -0.5952   60.6437 H       1  ZINC001291841503    0.0800
     13 C13       -14.7893   -0.6765   58.6371 C.3     1  ZINC001291841503   -0.1400
     14 C14       -16.1218   -0.7446   57.8492 C.3     1  ZINC001291841503    0.0500
     15 O15       -16.7251   -1.9885   58.2394 O.3     1  ZINC001291841503   -0.3800
     16 C16       -16.2413   -2.3852   59.5318 C.3     1  ZINC001291841503    0.0600
     17 N17       -11.7609   -1.1562   60.9412 N.pl3   1  ZINC001291841503   -0.4700
     18 C18       -11.0093   -2.3120   60.4457 C.3     1  ZINC001291841503    0.1900
     19 C19       -11.1224   -2.3789   58.9445 C.2     1  ZINC001291841503   -0.2700
     20 C20       -11.0617   -3.4872   58.2001 C.2     1  ZINC001291841503    0.0800
     21 N21       -11.1878   -3.2828   56.9043 N.2     1  ZINC001291841503   -0.4800
     22 C22       -11.3515   -2.0638   56.5143 C.2     1  ZINC001291841503    0.0500
     23 C23       -11.5134   -1.6316   55.0798 C.3     1  ZINC001291841503   -0.0800
     24 S24       -11.3656   -1.0108   57.8612 S.3     1  ZINC001291841503    0.1800
     25 C25        -9.3350    1.0921   60.3225 C.ar    1  ZINC001291841503   -0.0900
     26 C26        -9.6089    2.4388   60.1731 C.ar    1  ZINC001291841503   -0.0900
     27 C27        -9.1926    3.1070   59.0369 C.ar    1  ZINC001291841503   -0.1200
     28 C28        -8.5021    2.4286   58.0501 C.ar    1  ZINC001291841503   -0.1200
     29 C29        -8.2274    1.0821   58.1997 C.ar    1  ZINC001291841503   -0.1200
     30 C30        -8.6399    0.4149   59.3380 C.ar    1  ZINC001291841503   -0.1100
     31 H31       -10.3470   -0.2032   64.1684 H       1  ZINC001291841503    0.0500
     32 H32        -8.5851   -0.2672   63.9241 H       1  ZINC001291841503    0.0500
     33 H33        -9.3006    1.0332   64.9065 H       1  ZINC001291841503    0.0600
     34 H34       -10.4463    1.9222   62.8951 H       1  ZINC001291841503    0.0800
     35 H35        -8.6843    1.8583   62.6508 H       1  ZINC001291841503    0.0800
     36 H36       -15.0116   -2.1513   62.4967 H       1  ZINC001291841503    0.0500
     37 H37       -15.1525   -3.5732   61.4353 H       1  ZINC001291841503    0.0900
     38 H38       -13.6127   -3.2257   62.2578 H       1  ZINC001291841503    0.0700
     39 H39       -14.4719    0.3559   58.7836 H       1  ZINC001291841503    0.0900
     40 H40       -14.0109   -1.2585   58.1434 H       1  ZINC001291841503    0.0800
     41 H41       -16.7662    0.0908   58.1231 H       1  ZINC001291841503    0.0700
     42 H42       -15.9280   -0.7382   56.7766 H       1  ZINC001291841503    0.0900
     43 H43       -15.7622   -3.3619   59.4635 H       1  ZINC001291841503    0.0800
     44 H44       -17.0689   -2.4267   60.2399 H       1  ZINC001291841503    0.0700
     45 H45        -9.9610   -2.2113   60.7269 H       1  ZINC001291841503    0.1100
     46 H46       -11.4164   -3.2242   60.8818 H       1  ZINC001291841503    0.1100
     47 H47       -10.9210   -4.4698   58.6256 H       1  ZINC001291841503    0.1700
     48 H48       -12.5709   -1.6384   54.8154 H       1  ZINC001291841503    0.0900
     49 H49       -11.1146   -0.6247   54.9563 H       1  ZINC001291841503    0.0800
     50 H50       -10.9720   -2.3190   54.4297 H       1  ZINC001291841503    0.0900
     51 H51       -10.1483    2.9688   60.9442 H       1  ZINC001291841503    0.1300
     52 H52        -9.4072    4.1590   58.9200 H       1  ZINC001291841503    0.1200
     53 H53        -8.1775    2.9504   57.1620 H       1  ZINC001291841503    0.1200
     54 H54        -7.6882    0.5520   57.4286 H       1  ZINC001291841503    0.1200
     55 H55        -8.4253   -0.6371   59.4550 H       1  ZINC001291841503    0.1200
@<TRIPOS>BOND
     1     1     2    1
     2     1    31    1
     3     1    32    1
     4     1    33    1
     5     2     3    1
     6     2    34    1
     7     2    35    1
     8     3     4    1
     9     3     5    1
    10     3    25    1
    11     5    17    1
    12     5     6    2
    13     6     7    1
    14     7     8    2
    15     8     9    1
    16     8    17    1
    17     9    10    1
    18     9    11    1
    19    10    36    1
    20    10    37    1
    21    10    38    1
    22    11    12    1
    23    11    16    1
    24    11    13    1
    25    13    14    1
    26    13    39    1
    27    13    40    1
    28    14    15    1
    29    14    41    1
    30    14    42    1
    31    15    16    1
    32    16    43    1
    33    16    44    1
    34    17    18    1
    35    18    19    1
    36    18    45    1
    37    18    46    1
    38    19    24    1
    39    19    20    2
    40    20    21    1
    41    20    47    1
    42    21    22    2
    43    22    23    1
    44    22    24    1
    45    23    48    1
    46    23    49    1
    47    23    50    1
    48    25    30   ar
    49    25    26   ar
    50    26    27   ar
    51    26    51    1
    52    27    28   ar
    53    27    52    1
    54    28    29   ar
    55    28    53    1
    56    29    30   ar
    57    29    54    1
    58    30    55    1
@<TRIPOS>SUBSTRUCTURE
     1 ZINC001291841503        1 TEMP              0 ****  ****    0 ROOT


##########                                Name:    ZINC000788423111
##########                DOCK_Rotatable_Bonds:                   7
##########                         Heavy_Atoms:                  23
##########                    Molecular_Weight:             399.243
##########                DOCK_Rotatable_Bonds:                   7
##########                       Formal_Charge:         1.04308e-07
##########                     HBond_Acceptors:                   8
##########                        HBond_Donors:                   1
##########                         Heavy_Atoms:                  23
##########                          Grid_Score:          -29.965778
##########                     Grid_vdw_energy:          -31.276285
##########                      Grid_es_energy:            1.310507
##########           Internal_energy_repulsive:            5.433972

@<TRIPOS>MOLECULE
ZINC000788423111
 35 37 1 0 0
SMALL
USER_CHARGES


@<TRIPOS>ATOM
      1 O1         -1.6531    3.9297   52.3385 O.3     1  ZINC000788423111   -0.5400
      2 C2         -2.9721    3.3934   52.2178 C.3     1  ZINC000788423111    0.1000
      3 H3         -2.9502    2.3240   52.4279 H       1  ZINC000788423111    0.1300
      4 C4         -3.4880    3.6232   50.7959 C.3     1  ZINC000788423111    0.0300
      5 O5         -4.0838    2.4205   50.3051 O.3     1  ZINC000788423111   -0.2900
      6 C6         -5.3823    2.1954   50.6367 C.ar    1  ZINC000788423111    0.1700
      7 C7         -5.7315    1.0507   51.3373 C.ar    1  ZINC000788423111   -0.2400
      8 C8         -7.0545    0.8234   51.6738 C.ar    1  ZINC000788423111    0.1500
      9 F9         -7.3959   -0.2914   52.3563 F       1  ZINC000788423111   -0.1300
     10 C10        -8.0283    1.7386   51.3115 C.ar    1  ZINC000788423111   -0.1600
     11 C11        -7.6807    2.8805   50.6122 C.ar    1  ZINC000788423111   -0.0300
     12 Br12       -9.0131    4.1284   50.1189 Br      1  ZINC000788423111   -0.0200
     13 C13        -6.3595    3.1135   50.2795 C.ar    1  ZINC000788423111   -0.1300
     14 C14        -3.8993    4.0902   53.2157 C.3     1  ZINC000788423111    0.1000
     15 N15        -3.6518    3.5655   54.5608 N.pl3   1  ZINC000788423111   -0.1300
     16 N16        -4.5613    3.2438   55.4131 N.2     1  ZINC000788423111   -0.0500
     17 N17        -3.9948    2.8196   56.4915 N.2     1  ZINC000788423111   -0.2600
     18 C18        -2.6687    2.8822   56.2955 C.2     1  ZINC000788423111    0.2400
     19 C19        -1.6137    2.4976   57.2585 C.2     1  ZINC000788423111   -0.1300
     20 C20        -0.2953    2.4412   56.9866 C.2     1  ZINC000788423111   -0.0800
     21 C21         0.4966    2.0549   58.0485 C.2     1  ZINC000788423111   -0.1400
     22 C22        -0.1625    1.7965   59.1815 C.2     1  ZINC000788423111   -0.2000
     23 S23        -1.8855    2.0506   58.9378 S.3     1  ZINC000788423111    0.1700
     24 N24        -2.4897    3.3486   55.0739 N.2     1  ZINC000788423111   -0.2900
     25 H25        -1.6013    4.8838   52.1897 H       1  ZINC000788423111    0.3800
     26 H26        -4.2317    4.4201   50.8036 H       1  ZINC000788423111    0.0900
     27 H27        -2.6577    3.9074   50.1496 H       1  ZINC000788423111    0.0800
     28 H28        -4.9717    0.3370   51.6197 H       1  ZINC000788423111    0.1500
     29 H29        -9.0605    1.5606   51.5749 H       1  ZINC000788423111    0.1500
     30 H30        -6.0890    4.0053   49.7338 H       1  ZINC000788423111    0.1500
     31 H31        -3.7064    5.1629   53.2029 H       1  ZINC000788423111    0.1300
     32 H32        -4.9370    3.9044   52.9383 H       1  ZINC000788423111    0.1300
     33 H33         0.1096    2.6790   56.0141 H       1  ZINC000788423111    0.1500
     34 H34         1.5702    1.9676   57.9694 H       1  ZINC000788423111    0.1500
     35 H35         0.2944    1.4832   60.1085 H       1  ZINC000788423111    0.1700
@<TRIPOS>BOND
     1     1     2    1
     2     1    25    1
     3     2     3    1
     4     2     4    1
     5     2    14    1
     6     4     5    1
     7     4    26    1
     8     4    27    1
     9     5     6    1
    10     6    13   ar
    11     6     7   ar
    12     7     8   ar
    13     7    28    1
    14     8     9    1
    15     8    10   ar
    16    10    11   ar
    17    10    29    1
    18    11    12    1
    19    11    13   ar
    20    13    30    1
    21    14    15    1
    22    14    31    1
    23    14    32    1
    24    15    24    1
    25    15    16    1
    26    16    17    2
    27    17    18    1
    28    18    19    1
    29    18    24    2
    30    19    23    1
    31    19    20    2
    32    20    21    1
    33    20    33    1
    34    21    22    2
    35    21    34    1
    36    22    23    1
    37    22    35    1
@<TRIPOS>SUBSTRUCTURE
     1 ZINC000788423111        1 TEMP              0 ****  ****    0 ROOT


##########                                Name:    ZINC000451500596
##########                DOCK_Rotatable_Bonds:                   7
##########                         Heavy_Atoms:                  25
##########                    Molecular_Weight:             365.497
##########                DOCK_Rotatable_Bonds:                   7
##########                       Formal_Charge:           0.0400004
##########                     HBond_Acceptors:                   7
##########                        HBond_Donors:                   2
##########                         Heavy_Atoms:                  25
##########                          Grid_Score:          -29.926495
##########                     Grid_vdw_energy:          -24.487982
##########                      Grid_es_energy:           -5.438514
##########           Internal_energy_repulsive:           10.960682

@<TRIPOS>MOLECULE
ZINC000451500596
 52 54 1 0 0
SMALL
USER_CHARGES


@<TRIPOS>ATOM
      1 C1         -6.6594    1.1813   66.1106 C.3     1  ZINC000451500596   -0.6700
      2 S2         -7.7123    0.1633   67.1809 S.o2    1  ZINC000451500596    2.6100
      3 O3         -7.8539   -1.1443   66.6428 O.2     1  ZINC000451500596   -0.9500
      4 O4         -7.3739    0.3609   68.5468 O.2     1  ZINC000451500596   -0.9600
      5 N5         -9.2203    0.8313   67.0331 N.am    1  ZINC000451500596   -1.1200
      6 C6         -9.4428    2.2288   67.4122 C.3     1  ZINC000451500596    0.1200
      7 C7         -9.5522    3.0881   66.1510 C.3     1  ZINC000451500596   -0.1000
      8 H8         -8.6467    2.9892   65.5524 H       1  ZINC000451500596    0.0900
      9 C9         -9.7723    4.5657   66.5358 C.3     1  ZINC000451500596   -0.1200
     10 C10       -10.7516    5.0966   65.4597 C.3     1  ZINC000451500596   -0.1300
     11 C11       -11.7025    3.8939   65.2396 C.3     1  ZINC000451500596   -0.1300
     12 C12       -10.7787    2.6601   65.3262 C.3     1  ZINC000451500596    0.1400
     13 H13       -11.2961    1.8405   65.8247 H       1  ZINC000451500596    0.1000
     14 N14       -10.3641    2.2484   63.9828 N.am    1  ZINC000451500596   -0.7200
     15 C15       -11.1947    1.5136   63.2169 C.2     1  ZINC000451500596    0.5300
     16 O16       -12.2848    1.1920   63.6404 O.2     1  ZINC000451500596   -0.5300
     17 C17       -10.7691    1.0915   61.8343 C.3     1  ZINC000451500596   -0.1300
     18 H18       -11.0827    1.8279   61.0944 H       1  ZINC000451500596    0.1000
     19 C19        -9.2341    0.8742   61.7752 C.3     1  ZINC000451500596   -0.1200
     20 C20        -9.1065   -0.1428   60.6137 C.3     1  ZINC000451500596    0.0500
     21 N21       -10.2787   -1.0318   60.7597 N.3     1  ZINC000451500596   -0.4900
     22 C22       -10.7411   -1.4595   59.5130 C.ar    1  ZINC000451500596    0.0800
     23 C23       -10.8406   -2.8169   59.2357 C.ar    1  ZINC000451500596   -0.0900
     24 C24       -11.2986   -3.2363   58.0021 C.ar    1  ZINC000451500596   -0.1100
     25 C25       -11.6574   -2.3066   57.0434 C.ar    1  ZINC000451500596   -0.1200
     26 C26       -11.5594   -0.9544   57.3161 C.ar    1  ZINC000451500596   -0.1100
     27 C27       -11.1077   -0.5282   58.5496 C.ar    1  ZINC000451500596   -0.1500
     28 C28       -11.3352   -0.3023   61.4907 C.3     1  ZINC000451500596    0.0600
     29 H29        -7.0276    1.1322   65.0858 H       1  ZINC000451500596    0.1300
     30 H30        -6.6822    2.2151   66.4557 H       1  ZINC000451500596    0.1300
     31 H31        -5.6357    0.8086   66.1472 H       1  ZINC000451500596    0.1300
     32 H32        -9.9564    0.2973   66.6956 H       1  ZINC000451500596    0.4200
     33 H33       -10.3660    2.3071   67.9863 H       1  ZINC000451500596    0.0700
     34 H34        -8.6071    2.5782   68.0186 H       1  ZINC000451500596    0.0900
     35 H35       -10.2188    4.6392   67.5275 H       1  ZINC000451500596    0.0800
     36 H36        -8.8310    5.1139   66.4987 H       1  ZINC000451500596    0.0700
     37 H37       -11.3019    5.9611   65.8310 H       1  ZINC000451500596    0.0700
     38 H38       -10.2196    5.3417   64.5404 H       1  ZINC000451500596    0.0700
     39 H39       -12.4607    3.8589   66.0219 H       1  ZINC000451500596    0.0800
     40 H40       -12.1697    3.9519   64.2566 H       1  ZINC000451500596    0.0700
     41 H41        -9.4919    2.5046   63.6445 H       1  ZINC000451500596    0.4000
     42 H42        -8.7168    1.8040   61.5387 H       1  ZINC000451500596    0.0800
     43 H43        -8.8638    0.4496   62.7084 H       1  ZINC000451500596    0.0800
     44 H44        -9.1379    0.3721   59.6534 H       1  ZINC000451500596    0.0600
     45 H45        -8.1829   -0.7137   60.7090 H       1  ZINC000451500596    0.0900
     46 H46       -10.5600   -3.5436   59.9838 H       1  ZINC000451500596    0.1300
     47 H47       -11.3763   -4.2916   57.7859 H       1  ZINC000451500596    0.1300
     48 H48       -12.0144   -2.6373   56.0793 H       1  ZINC000451500596    0.1200
     49 H49       -11.8404   -0.2310   56.5651 H       1  ZINC000451500596    0.1200
     50 H50       -11.0316    0.5279   58.7622 H       1  ZINC000451500596    0.1200
     51 H51       -11.5863   -0.8345   62.4082 H       1  ZINC000451500596    0.1000
     52 H52       -12.2204   -0.2039   60.8623 H       1  ZINC000451500596    0.0700
@<TRIPOS>BOND
     1     1     2    1
     2     1    29    1
     3     1    30    1
     4     1    31    1
     5     2     3    2
     6     2     4    2
     7     2     5   am
     8     5     6    1
     9     5    32    1
    10     6     7    1
    11     6    33    1
    12     6    34    1
    13     7     8    1
    14     7    12    1
    15     7     9    1
    16     9    10    1
    17     9    35    1
    18     9    36    1
    19    10    11    1
    20    10    37    1
    21    10    38    1
    22    11    12    1
    23    11    39    1
    24    11    40    1
    25    12    13    1
    26    12    14    1
    27    14    15   am
    28    14    41    1
    29    15    16    2
    30    15    17    1
    31    17    18    1
    32    17    28    1
    33    17    19    1
    34    19    20    1
    35    19    42    1
    36    19    43    1
    37    20    21    1
    38    20    44    1
    39    20    45    1
    40    21    22    1
    41    21    28    1
    42    22    27   ar
    43    22    23   ar
    44    23    24   ar
    45    23    46    1
    46    24    25   ar
    47    24    47    1
    48    25    26   ar
    49    25    48    1
    50    26    27   ar
    51    26    49    1
    52    27    50    1
    53    28    51    1
    54    28    52    1
@<TRIPOS>SUBSTRUCTURE
     1 ZINC000451500596        1 TEMP              0 ****  ****    0 ROOT


##########                                Name:    ZINC001058079801
##########                DOCK_Rotatable_Bonds:                   7
##########                         Heavy_Atoms:                  24
##########                    Molecular_Weight:             349.457
##########                DOCK_Rotatable_Bonds:                   7
##########                       Formal_Charge:           0.0200001
##########                     HBond_Acceptors:                   8
##########                        HBond_Donors:                   0
##########                         Heavy_Atoms:                  24
##########                          Grid_Score:          -29.921869
##########                     Grid_vdw_energy:          -29.461418
##########                      Grid_es_energy:           -0.460451
##########           Internal_energy_repulsive:           27.667034

@<TRIPOS>MOLECULE
ZINC001058079801
 47 49 1 0 0
SMALL
USER_CHARGES


@<TRIPOS>ATOM
      1 C1         -8.0091    5.7018   50.9933 C.3     1  ZINC001058079801   -0.1500
      2 C2         -8.1809    4.2941   51.5677 C.3     1  ZINC001058079801   -0.1200
      3 C3         -7.6834    3.2644   50.5513 C.3     1  ZINC001058079801   -0.0300
      4 C4         -7.7184    1.8906   51.1698 C.2     1  ZINC001058079801    0.2900
      5 N5         -6.6779    1.1100   51.1307 N.2     1  ZINC001058079801   -0.4800
      6 S6         -7.1408   -0.3166   51.9300 S.3     1  ZINC001058079801    0.1900
      7 C7         -8.7371    0.2316   52.2763 C.2     1  ZINC001058079801    0.2700
      8 N8         -9.7357   -0.4524   52.9457 N.3     1  ZINC001058079801   -0.4300
      9 C9        -10.8131   -0.8425   52.0273 C.3     1  ZINC001058079801    0.0700
     10 C10       -11.8250   -1.7188   52.7689 C.3     1  ZINC001058079801   -0.1300
     11 C11       -12.3977   -0.9370   53.9544 C.3     1  ZINC001058079801    0.1300
     12 N12       -13.3238   -1.7909   54.7024 N.am    1  ZINC001058079801   -0.6100
     13 C13       -14.7263   -1.3954   54.8523 C.3     1  ZINC001058079801    0.0700
     14 C14       -12.8853   -2.9405   55.2527 C.2     1  ZINC001058079801    0.5200
     15 O15       -11.7245   -3.2687   55.1272 O.2     1  ZINC001058079801   -0.5300
     16 C16       -13.8374   -3.8181   56.0236 C.3     1  ZINC001058079801   -0.0600
     17 C17       -13.9882   -3.2857   57.4253 C.2     1  ZINC001058079801   -0.1900
     18 C18       -13.0935   -2.5679   58.1456 C.2     1  ZINC001058079801   -0.0400
     19 O19       -13.6701   -2.3221   59.3305 O.3     1  ZINC001058079801    0.1000
     20 N20       -14.7786   -2.8011   59.3933 N.2     1  ZINC001058079801   -0.3600
     21 C21       -15.0989   -3.4145   58.2907 C.2     1  ZINC001058079801    0.0000
     22 C22       -11.2506   -0.5009   54.8701 C.3     1  ZINC001058079801   -0.1200
     23 C23       -10.2553    0.3401   54.0675 C.3     1  ZINC001058079801    0.0400
     24 N24        -8.7976    1.4452   51.7701 N.2     1  ZINC001058079801   -0.5300
     25 H25        -8.3635    6.4354   51.7174 H       1  ZINC001058079801    0.0600
     26 H26        -6.9553    5.8812   50.7803 H       1  ZINC001058079801    0.0600
     27 H27        -8.5861    5.7916   50.0729 H       1  ZINC001058079801    0.0600
     28 H28        -7.6038    4.2043   52.4881 H       1  ZINC001058079801    0.0700
     29 H29        -9.2347    4.1147   51.7806 H       1  ZINC001058079801    0.0700
     30 H30        -8.3259    3.2830   49.6710 H       1  ZINC001058079801    0.1000
     31 H31        -6.6611    3.5058   50.2601 H       1  ZINC001058079801    0.0900
     32 H32       -11.3122    0.0511   51.6525 H       1  ZINC001058079801    0.0600
     33 H33       -10.3928   -1.4012   51.1911 H       1  ZINC001058079801    0.1000
     34 H34       -12.6327   -1.9953   52.0911 H       1  ZINC001058079801    0.0800
     35 H35       -11.3296   -2.6192   53.1320 H       1  ZINC001058079801    0.0800
     36 H36       -12.9277   -0.0575   53.5888 H       1  ZINC001058079801    0.1000
     37 H37       -15.3086   -1.8005   54.0248 H       1  ZINC001058079801    0.0600
     38 H38       -15.1146   -1.7833   55.7941 H       1  ZINC001058079801    0.0800
     39 H39       -14.7994   -0.3078   54.8498 H       1  ZINC001058079801    0.0800
     40 H40       -14.8091   -3.8215   55.5297 H       1  ZINC001058079801    0.1100
     41 H41       -13.4454   -4.8344   56.0611 H       1  ZINC001058079801    0.1100
     42 H42       -12.1098   -2.2553   57.8280 H       1  ZINC001058079801    0.2200
     43 H43       -16.0264   -3.9265   58.0811 H       1  ZINC001058079801    0.1900
     44 H44       -11.6478    0.0928   55.6935 H       1  ZINC001058079801    0.0900
     45 H45       -10.7461   -1.3821   55.2663 H       1  ZINC001058079801    0.0800
     46 H46        -9.4299    0.6403   54.7132 H       1  ZINC001058079801    0.1000
     47 H47       -10.7571    1.2281   53.6832 H       1  ZINC001058079801    0.0700
@<TRIPOS>BOND
     1     1     2    1
     2     1    25    1
     3     1    26    1
     4     1    27    1
     5     2     3    1
     6     2    28    1
     7     2    29    1
     8     3     4    1
     9     3    30    1
    10     3    31    1
    11     4    24    1
    12     4     5    2
    13     5     6    1
    14     6     7    1
    15     7     8    1
    16     7    24    2
    17     8    23    1
    18     8     9    1
    19     9    10    1
    20     9    32    1
    21     9    33    1
    22    10    11    1
    23    10    34    1
    24    10    35    1
    25    11    12    1
    26    11    22    1
    27    11    36    1
    28    12    13    1
    29    12    14   am
    30    13    37    1
    31    13    38    1
    32    13    39    1
    33    14    15    2
    34    14    16    1
    35    16    17    1
    36    16    40    1
    37    16    41    1
    38    17    21    1
    39    17    18    2
    40    18    19    1
    41    18    42    1
    42    19    20    1
    43    20    21    2
    44    21    43    1
    45    22    23    1
    46    22    44    1
    47    22    45    1
    48    23    46    1
    49    23    47    1
@<TRIPOS>SUBSTRUCTURE
     1 ZINC001058079801        1 TEMP              0 ****  ****    0 ROOT


##########                                Name:    ZINC001018437438
##########                DOCK_Rotatable_Bonds:                   8
##########                         Heavy_Atoms:                  24
##########                    Molecular_Weight:              333.39
##########                DOCK_Rotatable_Bonds:                   8
##########                       Formal_Charge:        -4.17233e-07
##########                     HBond_Acceptors:                   8
##########                        HBond_Donors:                   4
##########                         Heavy_Atoms:                  24
##########                          Grid_Score:          -29.920849
##########                     Grid_vdw_energy:          -30.218527
##########                      Grid_es_energy:            0.297679
##########           Internal_energy_repulsive:           87.561165

@<TRIPOS>MOLECULE
ZINC001018437438
 47 49 1 0 0
SMALL
USER_CHARGES


@<TRIPOS>ATOM
      1 C1        -12.4030   -2.7672   55.0647 C.3     1  ZINC001018437438   -0.1400
      2 C2        -12.4154   -2.2009   56.4859 C.3     1  ZINC001018437438    0.1400
      3 H3        -13.4432   -2.0080   56.7935 H       1  ZINC001018437438    0.0700
      4 C4        -11.7726   -3.2074   57.4454 C.3     1  ZINC001018437438   -0.1300
      5 C5        -11.6618   -2.5804   58.8371 C.3     1  ZINC001018437438   -0.1300
      6 C6        -10.7688   -1.3394   58.7696 C.3     1  ZINC001018437438    0.1300
      7 H7         -9.7840   -1.6197   58.3962 H       1  ZINC001018437438    0.1000
      8 N8        -10.6372   -0.7583   60.1080 N.am    1  ZINC001018437438   -0.7200
      9 C9         -9.5295   -0.9934   60.8388 C.2     1  ZINC001018437438    0.6000
     10 O10        -8.6384   -1.6868   60.3865 O.2     1  ZINC001018437438   -0.5100
     11 C11        -9.3981   -0.4113   62.1840 C.2     1  ZINC001018437438   -0.0400
     12 C12        -8.2736   -0.4293   62.9907 C.2     1  ZINC001018437438   -0.1400
     13 C13        -8.6437    0.2452   64.1565 C.2     1  ZINC001018437438    0.0600
     14 C14        -7.7637    0.4962   65.3537 C.3     1  ZINC001018437438   -0.0800
     15 C15        -8.4523    0.8135   66.6826 C.3     1  ZINC001018437438   -0.1700
     16 C16        -7.7813   -0.5456   66.4742 C.3     1  ZINC001018437438   -0.1600
     17 N17        -9.8902    0.6210   64.0241 N.2     1  ZINC001018437438   -0.2600
     18 N18       -10.3597    0.2603   62.8842 N.pl3   1  ZINC001018437438   -0.3800
     19 C19       -11.4002   -0.3117   57.8252 C.3     1  ZINC001018437438    0.1000
     20 N20       -11.6467   -0.9495   56.5243 N.am    1  ZINC001018437438   -0.6100
     21 C21       -11.1723   -0.3994   55.3890 C.2     1  ZINC001018437438    0.5200
     22 O22       -11.3784   -0.9380   54.3221 O.2     1  ZINC001018437438   -0.4800
     23 C23       -10.3855    0.8847   55.4455 C.3     1  ZINC001018437438   -0.1700
     24 C24       -10.0228    1.3135   54.0469 C.2     1  ZINC001018437438    0.5200
     25 N25        -8.7660    1.1379   53.5930 N.am    1  ZINC001018437438   -0.8600
     26 O26       -10.8619    1.8163   53.3301 O.2     1  ZINC001018437438   -0.5000
     27 H27       -11.3730   -2.8652   54.7216 H       1  ZINC001018437438    0.0700
     28 H28       -12.8824   -3.7460   55.0594 H       1  ZINC001018437438    0.0500
     29 H29       -12.9447   -2.0937   54.4005 H       1  ZINC001018437438    0.0800
     30 H30       -12.3896   -4.1044   57.4986 H       1  ZINC001018437438    0.0900
     31 H31       -10.7783   -3.4702   57.0845 H       1  ZINC001018437438    0.0700
     32 H32       -12.6540   -2.2954   59.1870 H       1  ZINC001018437438    0.0700
     33 H33       -11.2273   -3.3033   59.5276 H       1  ZINC001018437438    0.0800
     34 H34       -11.3474   -0.2044   60.4683 H       1  ZINC001018437438    0.4000
     35 H35        -7.3139   -0.8709   62.7665 H       1  ZINC001018437438    0.1700
     36 H36        -6.8172    0.9950   65.1451 H       1  ZINC001018437438    0.1200
     37 H37        -7.9590    1.5215   67.3486 H       1  ZINC001018437438    0.1000
     38 H38        -9.5419    0.8409   66.6909 H       1  ZINC001018437438    0.1000
     39 H39        -8.4294   -1.4124   66.3454 H       1  ZINC001018437438    0.1000
     40 H40        -6.8465   -0.7317   67.0030 H       1  ZINC001018437438    0.1000
     41 H41       -11.2614    0.4324   62.5712 H       1  ZINC001018437438    0.4400
     42 H42       -12.3444    0.0372   58.2434 H       1  ZINC001018437438    0.0700
     43 H43       -10.7216    0.5314   57.6962 H       1  ZINC001018437438    0.0900
     44 H44       -10.9887    1.6599   55.9181 H       1  ZINC001018437438    0.1200
     45 H45        -9.4758    0.7284   56.0250 H       1  ZINC001018437438    0.1200
     46 H46        -8.5320    1.4147   52.6933 H       1  ZINC001018437438    0.4000
     47 H47        -8.0953    0.7345   54.1661 H       1  ZINC001018437438    0.4000
@<TRIPOS>BOND
     1     1     2    1
     2     1    27    1
     3     1    28    1
     4     1    29    1
     5     2     3    1
     6     2    20    1
     7     2     4    1
     8     4     5    1
     9     4    30    1
    10     4    31    1
    11     5     6    1
    12     5    32    1
    13     5    33    1
    14     6     7    1
    15     6     8    1
    16     6    19    1
    17     8     9   am
    18     8    34    1
    19     9    10    2
    20     9    11    1
    21    11    18    1
    22    11    12    2
    23    12    13    1
    24    12    35    1
    25    13    14    1
    26    13    17    2
    27    14    16    1
    28    14    15    1
    29    14    36    1
    30    15    16    1
    31    15    37    1
    32    15    38    1
    33    16    39    1
    34    16    40    1
    35    17    18    1
    36    18    41    1
    37    19    20    1
    38    19    42    1
    39    19    43    1
    40    20    21   am
    41    21    22    2
    42    21    23    1
    43    23    24    1
    44    23    44    1
    45    23    45    1
    46    24    25   am
    47    24    26    2
    48    25    46    1
    49    25    47    1
@<TRIPOS>SUBSTRUCTURE
     1 ZINC001018437438        1 TEMP              0 ****  ****    0 ROOT


##########                                Name:    ZINC000077537368
##########                DOCK_Rotatable_Bonds:                   5
##########                         Heavy_Atoms:                  27
##########                    Molecular_Weight:             365.478
##########                DOCK_Rotatable_Bonds:                   5
##########                       Formal_Charge:          -0.0400007
##########                     HBond_Acceptors:                   6
##########                        HBond_Donors:                   0
##########                         Heavy_Atoms:                  27
##########                          Grid_Score:          -29.918764
##########                     Grid_vdw_energy:          -30.253643
##########                      Grid_es_energy:            0.334879
##########           Internal_energy_repulsive:           13.017896

@<TRIPOS>MOLECULE
ZINC000077537368
 54 56 1 0 0
SMALL
USER_CHARGES


@<TRIPOS>ATOM
      1 C1        -16.2407   -2.4733   56.2473 C.3     1  ZINC000077537368    0.0800
      2 N2        -15.2006   -2.2312   57.2501 N.pl3   1  ZINC000077537368   -0.2600
      3 N3        -15.3911   -1.6858   58.3973 N.2     1  ZINC000077537368   -0.2700
      4 C4        -14.2707   -1.6061   59.0688 C.2     1  ZINC000077537368    0.0400
      5 C5        -14.1033   -1.0271   60.4500 C.3     1  ZINC000077537368    0.0200
      6 C6        -12.7010   -1.3482   60.9711 C.3     1  ZINC000077537368   -0.1400
      7 C7        -14.2910    0.4903   60.3931 C.3     1  ZINC000077537368   -0.1400
      8 C8        -15.1477   -1.6353   61.3881 C.3     1  ZINC000077537368   -0.1400
      9 C9        -13.2576   -2.1535   58.2783 C.2     1  ZINC000077537368   -0.2000
     10 C10       -13.8812   -2.5564   57.1102 C.2     1  ZINC000077537368   -0.0400
     11 C11       -13.2483   -3.1982   55.9470 C.2     1  ZINC000077537368    0.5900
     12 O12       -13.5910   -4.3147   55.6072 O.2     1  ZINC000077537368   -0.5400
     13 N13       -12.2889   -2.5488   55.2583 N.am    1  ZINC000077537368   -0.6000
     14 C14       -11.6475   -3.1694   54.0892 C.3     1  ZINC000077537368    0.0800
     15 C15       -11.7070   -2.1811   52.9196 C.3     1  ZINC000077537368    0.0400
     16 N16       -11.1276   -0.8974   53.3375 N.3     1  ZINC000077537368   -0.5300
     17 C17       -11.0082    0.0219   52.1980 C.3     1  ZINC000077537368    0.0900
     18 C18        -9.5632    0.4081   52.0135 C.ar    1  ZINC000077537368   -0.0500
     19 C19        -8.5898   -0.5737   51.9570 C.ar    1  ZINC000077537368   -0.1200
     20 C20        -7.2653   -0.2272   51.7886 C.ar    1  ZINC000077537368   -0.0700
     21 C21        -6.9078    1.1177   51.6745 C.ar    1  ZINC000077537368   -0.0300
     22 C22        -5.5348    1.4846   51.4990 C.1     1  ZINC000077537368    0.2500
     23 N23        -4.4456    1.7757   51.3598 N.1     1  ZINC000077537368   -0.4100
     24 C24        -7.8953    2.1033   51.7319 C.ar    1  ZINC000077537368   -0.0700
     25 C25        -9.2167    1.7424   51.8954 C.ar    1  ZINC000077537368   -0.1000
     26 C26       -11.9067   -0.2900   54.4247 C.3     1  ZINC000077537368    0.0400
     27 C27       -11.8597   -1.1983   55.6523 C.3     1  ZINC000077537368    0.1200
     28 H28       -16.6116   -3.4934   56.3474 H       1  ZINC000077537368    0.0800
     29 H29       -17.0613   -1.7719   56.3983 H       1  ZINC000077537368    0.1000
     30 H30       -15.8232   -2.3347   55.2500 H       1  ZINC000077537368    0.1100
     31 H31       -11.9570   -0.9149   60.3027 H       1  ZINC000077537368    0.0600
     32 H32       -12.5799   -0.9293   61.9701 H       1  ZINC000077537368    0.0600
     33 H33       -12.5673   -2.4292   61.0117 H       1  ZINC000077537368    0.0600
     34 H34       -15.2900    0.7191   60.0218 H       1  ZINC000077537368    0.0600
     35 H35       -14.1700    0.9092   61.3921 H       1  ZINC000077537368    0.0600
     36 H36       -13.5470    0.9237   59.7247 H       1  ZINC000077537368    0.0600
     37 H37       -15.0139   -2.7163   61.4287 H       1  ZINC000077537368    0.0600
     38 H38       -15.0266   -1.2165   62.3871 H       1  ZINC000077537368    0.0600
     39 H39       -16.1467   -1.4065   61.0169 H       1  ZINC000077537368    0.0600
     40 H40       -12.2108   -2.2462   58.5271 H       1  ZINC000077537368    0.1700
     41 H41       -10.6078   -3.4000   54.3213 H       1  ZINC000077537368    0.0800
     42 H42       -12.1778   -4.0839   53.8231 H       1  ZINC000077537368    0.1200
     43 H43       -11.1402   -2.5791   52.0780 H       1  ZINC000077537368    0.0900
     44 H44       -12.7449   -2.0320   52.6218 H       1  ZINC000077537368    0.0400
     45 H45       -11.3711   -0.4692   51.2953 H       1  ZINC000077537368    0.0900
     46 H46       -11.6016    0.9161   52.3889 H       1  ZINC000077537368    0.0500
     47 H47        -8.8677   -1.6136   52.0454 H       1  ZINC000077537368    0.1300
     48 H48        -6.5064   -0.9945   51.7454 H       1  ZINC000077537368    0.1300
     49 H49        -7.6257    3.1453   51.6443 H       1  ZINC000077537368    0.1300
     50 H50        -9.9816    2.5036   51.9396 H       1  ZINC000077537368    0.1400
     51 H51       -11.4847    0.6835   54.6746 H       1  ZINC000077537368    0.1000
     52 H52       -12.9417   -0.1672   54.1059 H       1  ZINC000077537368    0.0400
     53 H53       -12.5277   -0.8098   56.4210 H       1  ZINC000077537368    0.1000
     54 H54       -10.8407   -1.2420   56.0367 H       1  ZINC000077537368    0.0800
@<TRIPOS>BOND
     1     1     2    1
     2     1    28    1
     3     1    29    1
     4     1    30    1
     5     2    10    1
     6     2     3    1
     7     3     4    2
     8     4     5    1
     9     4     9    1
    10     5     6    1
    11     5     7    1
    12     5     8    1
    13     6    31    1
    14     6    32    1
    15     6    33    1
    16     7    34    1
    17     7    35    1
    18     7    36    1
    19     8    37    1
    20     8    38    1
    21     8    39    1
    22     9    10    2
    23     9    40    1
    24    10    11    1
    25    11    12    2
    26    11    13   am
    27    13    27    1
    28    13    14    1
    29    14    15    1
    30    14    41    1
    31    14    42    1
    32    15    16    1
    33    15    43    1
    34    15    44    1
    35    16    17    1
    36    16    26    1
    37    17    18    1
    38    17    45    1
    39    17    46    1
    40    18    25   ar
    41    18    19   ar
    42    19    20   ar
    43    19    47    1
    44    20    21   ar
    45    20    48    1
    46    21    22    1
    47    21    24   ar
    48    22    23    3
    49    24    25   ar
    50    24    49    1
    51    25    50    1
    52    26    27    1
    53    26    51    1
    54    26    52    1
    55    27    53    1
    56    27    54    1
@<TRIPOS>SUBSTRUCTURE
     1 ZINC000077537368        1 TEMP              0 ****  ****    0 ROOT


##########                                Name:    ZINC000461336108
##########                DOCK_Rotatable_Bonds:                   5
##########                         Heavy_Atoms:                  26
##########                    Molecular_Weight:             373.522
##########                DOCK_Rotatable_Bonds:                   5
##########                       Formal_Charge:        -3.42727e-07
##########                     HBond_Acceptors:                   7
##########                        HBond_Donors:                   0
##########                         Heavy_Atoms:                  26
##########                          Grid_Score:          -29.910606
##########                     Grid_vdw_energy:          -28.690207
##########                      Grid_es_energy:           -1.220401
##########           Internal_energy_repulsive:           13.605150

@<TRIPOS>MOLECULE
ZINC000461336108
 53 56 1 0 0
SMALL
USER_CHARGES


@<TRIPOS>ATOM
      1 C1        -14.9315   -2.4348   61.6602 C.3     1  ZINC000461336108   -0.1300
      2 C2        -14.6629   -0.9550   61.3792 C.3     1  ZINC000461336108    0.0700
      3 H3        -15.5116   -0.5285   60.8445 H       1  ZINC000461336108    0.0800
      4 C4        -14.4760   -0.2264   62.6799 C.2     1  ZINC000461336108    0.5300
      5 O5        -15.2229   -0.4805   63.6010 O.2     1  ZINC000461336108   -0.5300
      6 N6        -13.5201    0.6903   62.8647 N.am    1  ZINC000461336108   -0.6100
      7 C7        -13.4444    1.3713   64.1595 C.3     1  ZINC000461336108    0.0700
      8 C8        -12.5483    1.0425   61.8335 C.3     1  ZINC000461336108    0.1200
      9 C9        -13.0498    0.5854   60.4624 C.3     1  ZINC000461336108    0.0400
     10 N10       -13.4531   -0.8266   60.5559 N.3     1  ZINC000461336108   -0.4300
     11 C11       -13.6527   -1.3706   59.2971 C.2     1  ZINC000461336108    0.3300
     12 N12       -14.7149   -1.2197   58.5415 N.2     1  ZINC000461336108   -0.2500
     13 N13       -14.5612   -1.8616   57.4388 N.2     1  ZINC000461336108   -0.2800
     14 C14       -13.4014   -2.4553   57.4253 C.2     1  ZINC000461336108    0.2000
     15 C15       -12.8459   -3.3051   56.3116 C.3     1  ZINC000461336108   -0.0300
     16 C16       -12.0537   -2.4237   55.3440 C.3     1  ZINC000461336108   -0.0900
     17 C17       -11.5309   -3.2622   54.1512 C.3     1  ZINC000461336108   -0.1200
     18 C18       -11.3270   -2.1953   53.0469 C.3     1  ZINC000461336108   -0.1200
     19 C19       -12.5140   -1.2276   53.2319 C.3     1  ZINC000461336108   -0.1300
     20 C20       -12.9760   -1.3728   54.6924 C.3     1  ZINC000461336108   -0.1200
     21 N21       -12.7792   -2.1594   58.6065 N.pl3   1  ZINC000461336108   -0.4900
     22 C22       -11.4536   -2.6041   59.0436 C.3     1  ZINC000461336108    0.1700
     23 C23       -10.4627   -1.4831   58.8624 C.2     1  ZINC000461336108   -0.2400
     24 C24       -10.6261   -0.4358   58.0528 C.2     1  ZINC000461336108   -0.0900
     25 C25        -9.5792    0.4698   58.0521 C.2     1  ZINC000461336108   -0.1400
     26 C26        -8.5657    0.1578   58.8612 C.2     1  ZINC000461336108   -0.2000
     27 S27        -8.9175   -1.3520   59.6921 S.3     1  ZINC000461336108    0.1200
     28 H28       -14.0836   -2.8628   62.1951 H       1  ZINC000461336108    0.0800
     29 H29       -15.8310   -2.5319   62.2680 H       1  ZINC000461336108    0.0800
     30 H30       -15.0711   -2.9641   60.7176 H       1  ZINC000461336108    0.0700
     31 H31       -14.2329    0.9980   64.8131 H       1  ZINC000461336108    0.0900
     32 H32       -12.4732    1.1784   64.6152 H       1  ZINC000461336108    0.0700
     33 H33       -13.5707    2.4441   64.0138 H       1  ZINC000461336108    0.0600
     34 H34       -12.4060    2.1232   61.8247 H       1  ZINC000461336108    0.0900
     35 H35       -11.5975    0.5561   62.0514 H       1  ZINC000461336108    0.0900
     36 H36       -13.9050    1.1923   60.1650 H       1  ZINC000461336108    0.0500
     37 H37       -12.2514    0.6900   59.7276 H       1  ZINC000461336108    0.1100
     38 H38       -12.1887   -4.0676   56.7296 H       1  ZINC000461336108    0.0800
     39 H39       -13.6658   -3.7853   55.7775 H       1  ZINC000461336108    0.1000
     40 H40       -11.2273   -1.9371   55.8621 H       1  ZINC000461336108    0.0900
     41 H41       -10.5860   -3.7438   54.4022 H       1  ZINC000461336108    0.0600
     42 H42       -12.2721   -3.9999   53.8434 H       1  ZINC000461336108    0.0600
     43 H43       -10.3820   -1.6720   53.1920 H       1  ZINC000461336108    0.0700
     44 H44       -11.3610   -2.6567   52.0599 H       1  ZINC000461336108    0.0700
     45 H45       -12.1938   -0.2033   53.0416 H       1  ZINC000461336108    0.0700
     46 H46       -13.3248   -1.4976   52.5552 H       1  ZINC000461336108    0.0600
     47 H47       -14.0110   -1.7132   54.7246 H       1  ZINC000461336108    0.0700
     48 H48       -12.8801   -0.4189   55.2110 H       1  ZINC000461336108    0.0700
     49 H49       -11.4939   -2.8870   60.0955 H       1  ZINC000461336108    0.1200
     50 H50       -11.1437   -3.4627   58.4480 H       1  ZINC000461336108    0.1000
     51 H51       -11.5082   -0.3045   57.4436 H       1  ZINC000461336108    0.1400
     52 H52        -9.5826    1.3611   57.4423 H       1  ZINC000461336108    0.1500
     53 H53        -7.6680    0.7445   58.9893 H       1  ZINC000461336108    0.1700
@<TRIPOS>BOND
     1     1     2    1
     2     1    28    1
     3     1    29    1
     4     1    30    1
     5     2     3    1
     6     2    10    1
     7     2     4    1
     8     4     5    2
     9     4     6   am
    10     6     7    1
    11     6     8    1
    12     7    31    1
    13     7    32    1
    14     7    33    1
    15     8     9    1
    16     8    34    1
    17     8    35    1
    18     9    10    1
    19     9    36    1
    20     9    37    1
    21    10    11    1
    22    11    21    1
    23    11    12    2
    24    12    13    1
    25    13    14    2
    26    14    15    1
    27    14    21    1
    28    15    16    1
    29    15    38    1
    30    15    39    1
    31    16    20    1
    32    16    17    1
    33    16    40    1
    34    17    18    1
    35    17    41    1
    36    17    42    1
    37    18    19    1
    38    18    43    1
    39    18    44    1
    40    19    20    1
    41    19    45    1
    42    19    46    1
    43    20    47    1
    44    20    48    1
    45    21    22    1
    46    22    23    1
    47    22    49    1
    48    22    50    1
    49    23    27    1
    50    23    24    2
    51    24    25    1
    52    24    51    1
    53    25    26    2
    54    25    52    1
    55    26    27    1
    56    26    53    1
@<TRIPOS>SUBSTRUCTURE
     1 ZINC000461336108        1 TEMP              0 ****  ****    0 ROOT


##########                                Name:    ZINC000740930783
##########                DOCK_Rotatable_Bonds:                  11
##########                         Heavy_Atoms:                  27
##########                    Molecular_Weight:             413.257
##########                DOCK_Rotatable_Bonds:                  11
##########                       Formal_Charge:          -0.0100004
##########                     HBond_Acceptors:                   9
##########                        HBond_Donors:                   4
##########                         Heavy_Atoms:                  27
##########                          Grid_Score:          -29.832024
##########                     Grid_vdw_energy:          -27.898085
##########                      Grid_es_energy:           -1.933938
##########           Internal_energy_repulsive:           13.474986

@<TRIPOS>MOLECULE
ZINC000740930783
 45 46 1 0 0
SMALL
USER_CHARGES


@<TRIPOS>ATOM
      1 C1         -2.8528    4.6220   51.4206 C.3     1  ZINC000740930783    0.0200
      2 O2         -3.1117    3.3337   51.9821 O.3     1  ZINC000740930783   -0.3000
      3 C3         -3.4774    3.2929   53.2914 C.ar    1  ZINC000740930783    0.1200
      4 C4         -2.5150    3.3638   54.2797 C.ar    1  ZINC000740930783   -0.1400
      5 C5         -2.8937    3.3223   55.6243 C.ar    1  ZINC000740930783   -0.0800
      6 C6         -1.8689    3.3981   56.6840 C.2     1  ZINC000740930783    0.5600
      7 O7         -1.6568    4.4530   57.2501 O.2     1  ZINC000740930783   -0.5300
      8 N8         -1.1684    2.2980   57.0239 N.am    1  ZINC000740930783   -0.7200
      9 C9         -0.1501    2.3737   58.0745 C.3     1  ZINC000740930783    0.0900
     10 C10        -0.8079    2.1580   59.4389 C.3     1  ZINC000740930783    0.1400
     11 H11        -1.7977    1.7231   59.3004 H       1  ZINC000740930783    0.1200
     12 O12        -0.9289    3.4122   60.1130 O.3     1  ZINC000740930783   -0.5500
     13 C13         0.0401    1.2242   60.2635 C.ar    1  ZINC000740930783   -0.1100
     14 C14        -0.4802    0.0200   60.6979 C.ar    1  ZINC000740930783   -0.1000
     15 C15         0.2978   -0.8369   61.4544 C.ar    1  ZINC000740930783   -0.1100
     16 C16         1.5960   -0.4892   61.7772 C.ar    1  ZINC000740930783   -0.1000
     17 C17         2.1175    0.7153   61.3433 C.ar    1  ZINC000740930783   -0.1100
     18 C18         1.3417    1.5701   60.5811 C.ar    1  ZINC000740930783   -0.0300
     19 Cl19        1.9959    3.0828   60.0358 Cl      1  ZINC000740930783   -0.0600
     20 C20        -4.2440    3.2092   55.9635 C.ar    1  ZINC000740930783   -0.1000
     21 C21        -5.2002    3.1389   54.9719 C.ar    1  ZINC000740930783   -0.0200
     22 Cl22       -6.8781    2.9989   55.3949 Cl      1  ZINC000740930783   -0.0300
     23 C23        -4.8238    3.1855   53.6358 C.ar    1  ZINC000740930783    0.0900
     24 O24        -5.7688    3.1160   52.6627 O.3     1  ZINC000740930783   -0.2900
     25 C25        -6.1578    1.8116   52.2280 C.3     1  ZINC000740930783    0.0400
     26 C26        -6.9251    1.9207   50.9356 C.2     1  ZINC000740930783    0.5200
     27 N27        -7.1034    3.1250   50.3573 N.am    1  ZINC000740930783   -0.8500
     28 O28        -7.3822    0.9248   50.4159 O.2     1  ZINC000740930783   -0.5100
     29 H29        -3.7498    5.2370   51.4934 H       1  ZINC000740930783    0.0600
     30 H30        -2.0395    5.0998   51.9669 H       1  ZINC000740930783    0.0600
     31 H31        -2.5716    4.5120   50.3732 H       1  ZINC000740930783    0.1100
     32 H32        -1.4719    3.4508   54.0139 H       1  ZINC000740930783    0.1600
     33 H33        -1.3385    1.4562   56.5731 H       1  ZINC000740930783    0.4100
     34 H34         0.6019    1.6025   57.9077 H       1  ZINC000740930783    0.0900
     35 H35         0.3241    3.3548   58.0508 H       1  ZINC000740930783    0.0800
     36 H36        -1.2303    3.3390   61.0289 H       1  ZINC000740930783    0.3800
     37 H37        -1.4947   -0.2519   60.4466 H       1  ZINC000740930783    0.1300
     38 H38        -0.1093   -1.7779   61.7937 H       1  ZINC000740930783    0.1300
     39 H39         2.2030   -1.1585   62.3689 H       1  ZINC000740930783    0.1400
     40 H40         3.1319    0.9867   61.5956 H       1  ZINC000740930783    0.1400
     41 H41        -4.5392    3.1765   57.0018 H       1  ZINC000740930783    0.1500
     42 H42        -5.2688    1.2003   52.0723 H       1  ZINC000740930783    0.0900
     43 H43        -6.7885    1.3487   52.9871 H       1  ZINC000740930783    0.0900
     44 H44        -7.5963    3.1951   49.5248 H       1  ZINC000740930783    0.4000
     45 H45        -6.7389    3.9217   50.7737 H       1  ZINC000740930783    0.4100
@<TRIPOS>BOND
     1     1     2    1
     2     1    29    1
     3     1    30    1
     4     1    31    1
     5     2     3    1
     6     3    23   ar
     7     3     4   ar
     8     4     5   ar
     9     4    32    1
    10     5     6    1
    11     5    20   ar
    12     6     7    2
    13     6     8   am
    14     8     9    1
    15     8    33    1
    16     9    10    1
    17     9    34    1
    18     9    35    1
    19    10    11    1
    20    10    12    1
    21    10    13    1
    22    12    36    1
    23    13    18   ar
    24    13    14   ar
    25    14    15   ar
    26    14    37    1
    27    15    16   ar
    28    15    38    1
    29    16    17   ar
    30    16    39    1
    31    17    18   ar
    32    17    40    1
    33    18    19    1
    34    20    21   ar
    35    20    41    1
    36    21    22    1
    37    21    23   ar
    38    23    24    1
    39    24    25    1
    40    25    26    1
    41    25    42    1
    42    25    43    1
    43    26    27   am
    44    26    28    2
    45    27    44    1
    46    27    45    1
@<TRIPOS>SUBSTRUCTURE
     1 ZINC000740930783        1 TEMP              0 ****  ****    0 ROOT


##########                                Name:    ZINC000952280524
##########                DOCK_Rotatable_Bonds:                   9
##########                         Heavy_Atoms:                  25
##########                    Molecular_Weight:             348.486
##########                DOCK_Rotatable_Bonds:                   9
##########                       Formal_Charge:          -0.0100004
##########                     HBond_Acceptors:                   5
##########                        HBond_Donors:                   1
##########                         Heavy_Atoms:                  25
##########                          Grid_Score:          -29.828121
##########                     Grid_vdw_energy:          -30.454453
##########                      Grid_es_energy:            0.626331
##########           Internal_energy_repulsive:           21.751982

@<TRIPOS>MOLECULE
ZINC000952280524
 57 59 1 0 0
SMALL
USER_CHARGES


@<TRIPOS>ATOM
      1 C1        -12.1649    0.7803   53.1491 C.3     1  ZINC000952280524   -0.1800
      2 C2        -11.7548   -0.5771   53.7235 C.3     1  ZINC000952280524    0.1400
      3 C3        -11.6308   -1.5950   52.5880 C.3     1  ZINC000952280524   -0.1900
      4 O4        -10.4972   -0.4519   54.3904 O.3     1  ZINC000952280524   -0.5500
      5 C5        -12.8153   -1.0509   54.7195 C.3     1  ZINC000952280524   -0.1200
      6 C6        -12.3693   -2.3446   55.3506 C.2     1  ZINC000952280524    0.5300
      7 O7        -12.5926   -3.3991   54.7948 O.2     1  ZINC000952280524   -0.5100
      8 N8        -11.7222   -2.3297   56.5328 N.am    1  ZINC000952280524   -0.6300
      9 C9        -11.2337   -3.5121   57.2573 C.3     1  ZINC000952280524    0.1000
     10 C10       -10.5851   -3.0124   58.5654 C.3     1  ZINC000952280524   -0.1300
     11 C11       -11.2466   -1.6243   58.7731 C.3     1  ZINC000952280524   -0.1000
     12 H12       -12.2231   -1.7239   59.2472 H       1  ZINC000952280524    0.0900
     13 C13       -10.3376   -0.6997   59.5852 C.3     1  ZINC000952280524   -0.0700
     14 C14       -10.9593    0.6971   59.6512 C.3     1  ZINC000952280524   -0.1300
     15 C15       -10.0299    1.6289   60.4354 C.3     1  ZINC000952280524    0.1100
     16 N16        -9.7555    1.0279   61.7479 N.am    1  ZINC000952280524   -0.6100
     17 C17        -9.9727    1.7246   62.8810 C.2     1  ZINC000952280524    0.5500
     18 O18       -10.3996    2.8619   62.8232 O.2     1  ZINC000952280524   -0.5500
     19 C19        -9.6931    1.1094   64.1876 C.2     1  ZINC000952280524   -0.2200
     20 C20        -8.8158    1.6722   65.0136 C.2     1  ZINC000952280524   -0.0300
     21 C21        -8.5307    1.0429   66.3529 C.3     1  ZINC000952280524   -0.1500
     22 C22        -8.1049   -0.4266   66.3666 C.3     1  ZINC000952280524   -0.1700
     23 C23        -7.0798    0.6697   66.6636 C.3     1  ZINC000952280524   -0.1600
     24 C24        -9.2405   -0.3471   61.8015 C.3     1  ZINC000952280524    0.1000
     25 C25       -10.1787   -1.2566   61.0019 C.3     1  ZINC000952280524   -0.1300
     26 C26       -11.3816   -1.1246   57.3107 C.3     1  ZINC000952280524    0.1100
     27 H27       -13.0792    0.6671   52.5665 H       1  ZINC000952280524    0.0700
     28 H28       -12.3385    1.4825   53.9645 H       1  ZINC000952280524    0.0600
     29 H29       -11.3695    1.1584   52.5069 H       1  ZINC000952280524    0.0600
     30 H30       -10.8753   -1.2575   51.8784 H       1  ZINC000952280524    0.0600
     31 H31       -11.3386   -2.5621   52.9972 H       1  ZINC000952280524    0.0800
     32 H32       -12.5901   -1.6906   52.0793 H       1  ZINC000952280524    0.0600
     33 H33       -10.5050    0.1696   55.1312 H       1  ZINC000952280524    0.3700
     34 H34       -12.9491   -0.2959   55.4941 H       1  ZINC000952280524    0.1000
     35 H35       -13.7594   -1.2076   54.1978 H       1  ZINC000952280524    0.1000
     36 H36       -12.0667   -4.1766   57.4867 H       1  ZINC000952280524    0.0700
     37 H37       -10.4934   -4.0370   56.6534 H       1  ZINC000952280524    0.0700
     38 H38       -10.8226   -3.6805   59.3932 H       1  ZINC000952280524    0.0800
     39 H39        -9.5063   -2.9116   58.4469 H       1  ZINC000952280524    0.0800
     40 H40        -9.3600   -0.6397   59.1069 H       1  ZINC000952280524    0.0800
     41 H41       -11.0937    1.0836   58.6409 H       1  ZINC000952280524    0.0800
     42 H42       -11.9260    0.6419   60.1516 H       1  ZINC000952280524    0.0700
     43 H43        -9.0952    1.7568   59.8896 H       1  ZINC000952280524    0.0700
     44 H44       -10.5121    2.5971   60.5705 H       1  ZINC000952280524    0.0900
     45 H45       -10.2003    0.2006   64.4761 H       1  ZINC000952280524    0.1300
     46 H46        -8.3076    2.5802   64.7244 H       1  ZINC000952280524    0.1300
     47 H47        -9.1475    1.3963   67.1792 H       1  ZINC000952280524    0.1200
     48 H48        -8.4416   -1.0404   67.2020 H       1  ZINC000952280524    0.1000
     49 H49        -8.0309   -0.9381   65.4070 H       1  ZINC000952280524    0.1000
     50 H50        -6.3314    0.8794   65.8993 H       1  ZINC000952280524    0.1000
     51 H51        -6.7421    0.7772   67.6944 H       1  ZINC000952280524    0.1000
     52 H52        -8.2414   -0.3802   61.3670 H       1  ZINC000952280524    0.0700
     53 H53        -9.2019   -0.6826   62.8378 H       1  ZINC000952280524    0.0900
     54 H54       -11.1527   -1.2934   61.4896 H       1  ZINC000952280524    0.0700
     55 H55        -9.7576   -2.2607   60.9530 H       1  ZINC000952280524    0.0800
     56 H56       -10.4390   -0.6986   56.9669 H       1  ZINC000952280524    0.0700
     57 H57       -12.1818   -0.3886   57.2337 H       1  ZINC000952280524    0.0800
@<TRIPOS>BOND
     1     1     2    1
     2     1    27    1
     3     1    28    1
     4     1    29    1
     5     2     3    1
     6     2     4    1
     7     2     5    1
     8     3    30    1
     9     3    31    1
    10     3    32    1
    11     4    33    1
    12     5     6    1
    13     5    34    1
    14     5    35    1
    15     6     7    2
    16     6     8   am
    17     8    26    1
    18     8     9    1
    19     9    10    1
    20     9    36    1
    21     9    37    1
    22    10    11    1
    23    10    38    1
    24    10    39    1
    25    11    12    1
    26    11    13    1
    27    11    26    1
    28    13    25    1
    29    13    14    1
    30    13    40    1
    31    14    15    1
    32    14    41    1
    33    14    42    1
    34    15    16    1
    35    15    43    1
    36    15    44    1
    37    16    17   am
    38    16    24    1
    39    17    18    2
    40    17    19    1
    41    19    20    2
    42    19    45    1
    43    20    21    1
    44    20    46    1
    45    21    23    1
    46    21    22    1
    47    21    47    1
    48    22    23    1
    49    22    48    1
    50    22    49    1
    51    23    50    1
    52    23    51    1
    53    24    25    1
    54    24    52    1
    55    24    53    1
    56    25    54    1
    57    25    55    1
    58    26    56    1
    59    26    57    1
@<TRIPOS>SUBSTRUCTURE
     1 ZINC000952280524        1 TEMP              0 ****  ****    0 ROOT


##########                                Name:    ZINC000942890482
##########                DOCK_Rotatable_Bonds:                   8
##########                         Heavy_Atoms:                  25
##########                    Molecular_Weight:             346.445
##########                DOCK_Rotatable_Bonds:                   8
##########                       Formal_Charge:          -0.0100004
##########                     HBond_Acceptors:                   5
##########                        HBond_Donors:                   0
##########                         Heavy_Atoms:                  25
##########                          Grid_Score:          -29.798788
##########                     Grid_vdw_energy:          -29.686968
##########                      Grid_es_energy:           -0.111821
##########           Internal_energy_repulsive:           19.610737

@<TRIPOS>MOLECULE
ZINC000942890482
 52 54 1 0 0
SMALL
USER_CHARGES


@<TRIPOS>ATOM
      1 C1         -3.8640    2.9141   50.7037 C.3     1  ZINC000942890482   -0.1700
      2 C2         -4.8969    4.0337   50.8472 C.3     1  ZINC000942890482    0.1000
      3 N3         -6.1132    3.4997   51.4651 N.am    1  ZINC000942890482   -0.6000
      4 C4         -6.9868    2.7867   50.7268 C.2     1  ZINC000942890482    0.5700
      5 O5         -6.7654    2.5868   49.5483 O.2     1  ZINC000942890482   -0.5100
      6 C6         -8.2133    2.2482   51.3497 C.ar    1  ZINC000942890482   -0.1400
      7 C7         -9.3398    3.0603   51.4952 C.ar    1  ZINC000942890482   -0.0600
      8 C8        -10.4820    2.5526   52.0767 C.ar    1  ZINC000942890482   -0.1600
      9 C9        -10.5133    1.2383   52.5168 C.ar    1  ZINC000942890482    0.1300
     10 F10       -11.6352    0.7456   53.0861 F       1  ZINC000942890482   -0.1300
     11 C11        -9.3975    0.4273   52.3743 C.ar    1  ZINC000942890482   -0.1600
     12 C12        -8.2521    0.9233   51.7900 C.ar    1  ZINC000942890482   -0.0100
     13 C13        -7.0403    0.0409   51.6357 C.3     1  ZINC000942890482   -0.1200
     14 C14        -6.3800    3.7408   52.8852 C.3     1  ZINC000942890482    0.1400
     15 H15        -7.2070    3.1232   53.2355 H       1  ZINC000942890482    0.1100
     16 C16        -6.6566    5.2440   53.1518 C.3     1  ZINC000942890482   -0.1500
     17 C17        -6.2356    5.4167   54.6265 C.3     1  ZINC000942890482    0.1100
     18 N18        -5.3040    4.3249   54.9452 N.am    1  ZINC000942890482   -0.6200
     19 C19        -4.7253    4.1107   56.1434 C.2     1  ZINC000942890482    0.5300
     20 O20        -4.9611    4.8538   57.0723 O.2     1  ZINC000942890482   -0.5400
     21 C21        -3.7848    2.9477   56.3288 C.3     1  ZINC000942890482   -0.1300
     22 C22        -2.8126    3.2550   57.4695 C.3     1  ZINC000942890482   -0.0700
     23 C23        -1.8333    2.0908   57.6325 C.3     1  ZINC000942890482   -0.1600
     24 C24        -0.3389    2.4076   57.5480 C.3     1  ZINC000942890482   -0.1800
     25 C25        -0.9729    2.0632   58.8973 C.3     1  ZINC000942890482   -0.1800
     26 C26        -5.1086    3.5015   53.7374 C.3     1  ZINC000942890482    0.0900
     27 H27        -3.6251    2.5118   51.6882 H       1  ZINC000942890482    0.0600
     28 H28        -4.2722    2.1214   50.0767 H       1  ZINC000942890482    0.0600
     29 H29        -2.9591    3.3114   50.2440 H       1  ZINC000942890482    0.0700
     30 H30        -4.4888    4.8263   51.4742 H       1  ZINC000942890482    0.0900
     31 H31        -5.1360    4.4359   49.8628 H       1  ZINC000942890482    0.0900
     32 H32        -9.3163    4.0844   51.1530 H       1  ZINC000942890482    0.1400
     33 H33       -11.3538    3.1799   52.1901 H       1  ZINC000942890482    0.1400
     34 H34        -9.4272   -0.5959   52.7188 H       1  ZINC000942890482    0.1400
     35 H35        -7.1217   -0.5297   50.7106 H       1  ZINC000942890482    0.0900
     36 H36        -6.1427    0.6585   51.6040 H       1  ZINC000942890482    0.0700
     37 H37        -6.9800   -0.6446   52.4812 H       1  ZINC000942890482    0.0700
     38 H38        -6.0462    5.8698   52.5007 H       1  ZINC000942890482    0.1000
     39 H39        -7.7152    5.4699   53.0240 H       1  ZINC000942890482    0.0900
     40 H40        -5.7397    6.3780   54.7603 H       1  ZINC000942890482    0.0700
     41 H41        -7.1121    5.3563   55.2717 H       1  ZINC000942890482    0.0700
     42 H42        -4.3575    2.0525   56.5707 H       1  ZINC000942890482    0.0900
     43 H43        -3.2247    2.7831   55.4083 H       1  ZINC000942890482    0.0900
     44 H44        -2.2593    4.1657   57.2399 H       1  ZINC000942890482    0.0700
     45 H45        -3.3707    3.3926   58.3955 H       1  ZINC000942890482    0.0700
     46 H46        -2.1689    1.1345   57.2310 H       1  ZINC000942890482    0.1000
     47 H47         0.3090    1.6597   57.0909 H       1  ZINC000942890482    0.0900
     48 H48        -0.0533    3.4454   57.3764 H       1  ZINC000942890482    0.0900
     49 H49        -1.1044    2.8745   59.6133 H       1  ZINC000942890482    0.0900
     50 H50        -0.7420    1.0888   59.3277 H       1  ZINC000942890482    0.0900
     51 H51        -5.0230    2.4487   54.0058 H       1  ZINC000942890482    0.0800
     52 H52        -4.2219    3.8289   53.1945 H       1  ZINC000942890482    0.0900
@<TRIPOS>BOND
     1     1     2    1
     2     1    27    1
     3     1    28    1
     4     1    29    1
     5     2     3    1
     6     2    30    1
     7     2    31    1
     8     3     4   am
     9     3    14    1
    10     4     5    2
    11     4     6    1
    12     6    12   ar
    13     6     7   ar
    14     7     8   ar
    15     7    32    1
    16     8     9   ar
    17     8    33    1
    18     9    10    1
    19     9    11   ar
    20    11    12   ar
    21    11    34    1
    22    12    13    1
    23    13    35    1
    24    13    36    1
    25    13    37    1
    26    14    15    1
    27    14    26    1
    28    14    16    1
    29    16    17    1
    30    16    38    1
    31    16    39    1
    32    17    18    1
    33    17    40    1
    34    17    41    1
    35    18    19   am
    36    18    26    1
    37    19    20    2
    38    19    21    1
    39    21    22    1
    40    21    42    1
    41    21    43    1
    42    22    23    1
    43    22    44    1
    44    22    45    1
    45    23    25    1
    46    23    24    1
    47    23    46    1
    48    24    25    1
    49    24    47    1
    50    24    48    1
    51    25    49    1
    52    25    50    1
    53    26    51    1
    54    26    52    1
@<TRIPOS>SUBSTRUCTURE
     1 ZINC000942890482        1 TEMP              0 ****  ****    0 ROOT


##########                                Name:    ZINC000854704989
##########                DOCK_Rotatable_Bonds:                   5
##########                         Heavy_Atoms:                  22
##########                    Molecular_Weight:             365.227
##########                DOCK_Rotatable_Bonds:                   5
##########                       Formal_Charge:        -1.78814e-07
##########                     HBond_Acceptors:                   5
##########                        HBond_Donors:                   1
##########                         Heavy_Atoms:                  22
##########                          Grid_Score:          -29.781855
##########                     Grid_vdw_energy:          -27.790287
##########                      Grid_es_energy:           -1.991567
##########           Internal_energy_repulsive:            5.568939

@<TRIPOS>MOLECULE
ZINC000854704989
 39 41 1 0 0
SMALL
USER_CHARGES


@<TRIPOS>ATOM
      1 O1         -7.7110   -0.4128   66.1248 O.2     1  ZINC000854704989   -0.5300
      2 C2         -8.1052    0.6387   65.6596 C.2     1  ZINC000854704989    0.5700
      3 N3         -7.5433    1.8004   66.0483 N.am    1  ZINC000854704989   -0.7300
      4 C4         -6.4615    1.7963   67.0362 C.3     1  ZINC000854704989    0.2000
      5 C5         -5.1404    1.6158   66.3339 C.2     1  ZINC000854704989   -0.0500
      6 C6         -4.8020    2.0875   65.1105 C.2     1  ZINC000854704989   -0.1700
      7 C7         -3.4707    1.6441   64.9295 C.2     1  ZINC000854704989    0.0000
      8 Br8        -2.3689    1.9509   63.4236 Br      1  ZINC000854704989    0.0600
      9 N9         -3.1544    0.9830   66.0065 N.2     1  ZINC000854704989   -0.3200
     10 O10        -4.0670    0.9619   66.7995 O.3     1  ZINC000854704989    0.1300
     11 C11        -9.1969    0.6428   64.6625 C.ar    1  ZINC000854704989   -0.1300
     12 C12       -10.4415    1.1837   64.9883 C.ar    1  ZINC000854704989   -0.0900
     13 C13       -11.4559    1.1848   64.0530 C.ar    1  ZINC000854704989   -0.1200
     14 C14       -11.2416    0.6509   62.7950 C.ar    1  ZINC000854704989   -0.0900
     15 C15       -10.0098    0.1130   62.4656 C.ar    1  ZINC000854704989   -0.0800
     16 C16        -9.7854   -0.4664   61.0926 C.3     1  ZINC000854704989   -0.0800
     17 H17        -8.7386   -0.7499   60.9836 H       1  ZINC000854704989    0.0900
     18 C18       -10.1462    0.5775   60.0312 C.3     1  ZINC000854704989   -0.1100
     19 C19        -9.9887   -0.0478   58.6417 C.3     1  ZINC000854704989   -0.1600
     20 C20       -10.8683   -1.2974   58.5504 C.3     1  ZINC000854704989    0.0600
     21 O21       -10.5012   -2.2134   59.5840 O.3     1  ZINC000854704989   -0.3800
     22 C22       -10.6717   -1.7008   60.9071 C.3     1  ZINC000854704989    0.0700
     23 C23        -8.9856    0.1109   63.3894 C.ar    1  ZINC000854704989   -0.0500
     24 H24        -7.8552    2.6391   65.6741 H       1  ZINC000854704989    0.4000
     25 H25        -6.4594    2.7429   67.5766 H       1  ZINC000854704989    0.1100
     26 H26        -6.6143    0.9772   67.7389 H       1  ZINC000854704989    0.1000
     27 H27        -5.4081    2.6674   64.4302 H       1  ZINC000854704989    0.1900
     28 H28       -10.6103    1.6001   65.9703 H       1  ZINC000854704989    0.1200
     29 H29       -12.4195    1.6031   64.3038 H       1  ZINC000854704989    0.1300
     30 H30       -12.0392    0.6536   62.0667 H       1  ZINC000854704989    0.1300
     31 H31       -11.1784    0.8986   60.1717 H       1  ZINC000854704989    0.0700
     32 H32        -9.4804    1.4356   60.1225 H       1  ZINC000854704989    0.0700
     33 H33       -10.2965    0.6706   57.8820 H       1  ZINC000854704989    0.0800
     34 H34        -8.9463   -0.3236   58.4826 H       1  ZINC000854704989    0.0700
     35 H35       -11.9143   -1.0151   58.6694 H       1  ZINC000854704989    0.0500
     36 H36       -10.7276   -1.7706   57.5785 H       1  ZINC000854704989    0.1000
     37 H37       -10.3900   -2.4646   61.6318 H       1  ZINC000854704989    0.1000
     38 H38       -11.7150   -1.4234   61.0579 H       1  ZINC000854704989    0.0500
     39 H39        -8.0245   -0.3089   63.1309 H       1  ZINC000854704989    0.1400
@<TRIPOS>BOND
     1     1     2    2
     2     2     3   am
     3     2    11    1
     4     3     4    1
     5     3    24    1
     6     4     5    1
     7     4    25    1
     8     4    26    1
     9     5    10    1
    10     5     6    2
    11     6     7    1
    12     6    27    1
    13     7     8    1
    14     7     9    2
    15     9    10    1
    16    11    23   ar
    17    11    12   ar
    18    12    13   ar
    19    12    28    1
    20    13    14   ar
    21    13    29    1
    22    14    15   ar
    23    14    30    1
    24    15    16    1
    25    15    23   ar
    26    16    17    1
    27    16    22    1
    28    16    18    1
    29    18    19    1
    30    18    31    1
    31    18    32    1
    32    19    20    1
    33    19    33    1
    34    19    34    1
    35    20    21    1
    36    20    35    1
    37    20    36    1
    38    21    22    1
    39    22    37    1
    40    22    38    1
    41    23    39    1
@<TRIPOS>SUBSTRUCTURE
     1 ZINC000854704989        1 TEMP              0 ****  ****    0 ROOT


##########                                Name:    ZINC000076573199
##########                DOCK_Rotatable_Bonds:                  10
##########                         Heavy_Atoms:                  24
##########                    Molecular_Weight:             333.431
##########                DOCK_Rotatable_Bonds:                  10
##########                       Formal_Charge:          -0.0200009
##########                     HBond_Acceptors:                   6
##########                        HBond_Donors:                   3
##########                         Heavy_Atoms:                  24
##########                          Grid_Score:          -29.777021
##########                     Grid_vdw_energy:          -29.050188
##########                      Grid_es_energy:           -0.726834
##########           Internal_energy_repulsive:           15.975793

@<TRIPOS>MOLECULE
ZINC000076573199
 51 51 1 0 0
SMALL
USER_CHARGES


@<TRIPOS>ATOM
      1 C1         -2.5464    2.1444   63.6492 C.3     1  ZINC000076573199   -0.1500
      2 C2         -1.6898    2.3378   62.3962 C.3     1  ZINC000076573199   -0.1200
      3 C3         -0.5555    1.3110   62.3904 C.3     1  ZINC000076573199   -0.1000
      4 H4         -0.7673    0.5315   63.1223 H       1  ZINC000076573199    0.0700
      5 C5          0.7609    2.0033   62.7489 C.3     1  ZINC000076573199   -0.1500
      6 C6         -0.4405    0.6860   60.9986 C.3     1  ZINC000076573199   -0.1200
      7 C7         -0.2475    1.7907   59.9579 C.3     1  ZINC000076573199    0.1400
      8 H8         -0.3284    2.7640   60.4417 H       1  ZINC000076573199    0.1000
      9 C9          1.1355    1.6527   59.3181 C.3     1  ZINC000076573199   -0.1700
     10 N10        -1.2781    1.6725   58.9234 N.am    1  ZINC000076573199   -0.6900
     11 C11        -1.6506    2.7578   58.2162 C.2     1  ZINC000076573199    0.5100
     12 O12        -1.1334    3.8331   58.4374 O.2     1  ZINC000076573199   -0.5100
     13 C13        -2.7000    2.6369   57.1603 C.2     1  ZINC000076573199    0.5100
     14 O14        -3.2081    1.5589   56.9303 O.2     1  ZINC000076573199   -0.5000
     15 N15        -3.0827    3.7249   56.4629 N.am    1  ZINC000076573199   -0.6400
     16 C16        -4.0644    3.6118   55.4752 C.ar    1  ZINC000076573199    0.1500
     17 C17        -5.3613    4.0404   55.7310 C.ar    1  ZINC000076573199   -0.1300
     18 C18        -6.3323    3.9291   54.7544 C.ar    1  ZINC000076573199   -0.0800
     19 C19        -6.0177    3.3920   53.5210 C.ar    1  ZINC000076573199   -0.1200
     20 C20        -7.0799    3.2731   52.4588 C.3     1  ZINC000076573199   -0.1100
     21 C21        -4.7227    2.9616   53.2588 C.ar    1  ZINC000076573199    0.1600
     22 N22        -4.4052    2.4177   52.0093 N.am    1  ZINC000076573199   -0.6700
     23 C23        -3.5778    3.0800   51.1767 C.2     1  ZINC000076573199    0.5100
     24 C24        -3.2358    2.4944   49.8309 C.3     1  ZINC000076573199   -0.1700
     25 O25        -3.1087    4.1475   51.5103 O.2     1  ZINC000076573199   -0.5200
     26 C26        -3.7440    3.0765   54.2350 C.ar    1  ZINC000076573199   -0.1400
     27 H27        -1.9281    2.2810   64.5365 H       1  ZINC000076573199    0.0600
     28 H28        -3.3544    2.8758   63.6533 H       1  ZINC000076573199    0.0500
     29 H29        -2.9666    1.1387   63.6505 H       1  ZINC000076573199    0.0500
     30 H30        -2.3080    2.2012   61.5090 H       1  ZINC000076573199    0.0600
     31 H31        -1.2696    3.3434   62.3950 H       1  ZINC000076573199    0.0600
     32 H32         1.0148    2.7253   61.9728 H       1  ZINC000076573199    0.0600
     33 H33         0.6522    2.5188   63.7032 H       1  ZINC000076573199    0.0600
     34 H34         1.5535    1.2591   62.8262 H       1  ZINC000076573199    0.0500
     35 H35         0.4140    0.0098   60.9734 H       1  ZINC000076573199    0.0800
     36 H36        -1.3506    0.1299   60.7737 H       1  ZINC000076573199    0.0700
     37 H37         1.2731    2.4397   58.5766 H       1  ZINC000076573199    0.0600
     38 H38         1.9023    1.7406   60.0877 H       1  ZINC000076573199    0.0700
     39 H39         1.2164    0.6794   58.8341 H       1  ZINC000076573199    0.0600
     40 H40        -1.6923    0.8133   58.7473 H       1  ZINC000076573199    0.4100
     41 H41        -2.6766    4.5864   56.6469 H       1  ZINC000076573199    0.4200
     42 H42        -5.6105    4.4603   56.6942 H       1  ZINC000076573199    0.1400
     43 H43        -7.3396    4.2625   54.9557 H       1  ZINC000076573199    0.1300
     44 H44        -7.0944    4.1813   51.8563 H       1  ZINC000076573199    0.0700
     45 H45        -6.8612    2.4172   51.8205 H       1  ZINC000076573199    0.0600
     46 H46        -8.0524    3.1350   52.9313 H       1  ZINC000076573199    0.0700
     47 H47        -4.7804    1.5640   51.7424 H       1  ZINC000076573199    0.4100
     48 H48        -4.1480    2.3654   49.2483 H       1  ZINC000076573199    0.0900
     49 H49        -2.5596    3.1669   49.3031 H       1  ZINC000076573199    0.1000
     50 H50        -2.7525    1.5270   49.9679 H       1  ZINC000076573199    0.0900
     51 H51        -2.7368    2.7426   54.0335 H       1  ZINC000076573199    0.1400
@<TRIPOS>BOND
     1     1     2    1
     2     1    27    1
     3     1    28    1
     4     1    29    1
     5     2     3    1
     6     2    30    1
     7     2    31    1
     8     3     4    1
     9     3     5    1
    10     3     6    1
    11     5    32    1
    12     5    33    1
    13     5    34    1
    14     6     7    1
    15     6    35    1
    16     6    36    1
    17     7     8    1
    18     7     9    1
    19     7    10    1
    20     9    37    1
    21     9    38    1
    22     9    39    1
    23    10    11   am
    24    10    40    1
    25    11    12    2
    26    11    13    1
    27    13    14    2
    28    13    15   am
    29    15    16    1
    30    15    41    1
    31    16    26   ar
    32    16    17   ar
    33    17    18   ar
    34    17    42    1
    35    18    19   ar
    36    18    43    1
    37    19    20    1
    38    19    21   ar
    39    20    44    1
    40    20    45    1
    41    20    46    1
    42    21    22    1
    43    21    26   ar
    44    22    23   am
    45    22    47    1
    46    23    24    1
    47    23    25    2
    48    24    48    1
    49    24    49    1
    50    24    50    1
    51    26    51    1
@<TRIPOS>SUBSTRUCTURE
     1 ZINC000076573199        1 TEMP              0 ****  ****    0 ROOT


##########                                Name:    ZINC000464867530
##########                DOCK_Rotatable_Bonds:                   8
##########                         Heavy_Atoms:                  30
##########                    Molecular_Weight:              422.49
##########                DOCK_Rotatable_Bonds:                   8
##########                       Formal_Charge:         -0.00999994
##########                     HBond_Acceptors:                   7
##########                        HBond_Donors:                   0
##########                         Heavy_Atoms:                  30
##########                          Grid_Score:          -29.759590
##########                     Grid_vdw_energy:          -28.292101
##########                      Grid_es_energy:           -1.467489
##########           Internal_energy_repulsive:           35.298779

@<TRIPOS>MOLECULE
ZINC000464867530
 59 62 1 0 0
SMALL
USER_CHARGES


@<TRIPOS>ATOM
      1 C1         -1.4967    2.6513   56.8717 C.3     1  ZINC000464867530   -0.1500
      2 C2         -2.8481    2.6108   56.1553 C.3     1  ZINC000464867530   -0.1400
      3 C3         -2.8456    3.6191   55.0046 C.3     1  ZINC000464867530    0.0900
      4 N4         -4.1358    3.5728   54.3120 N.am    1  ZINC000464867530   -0.6100
      5 C5         -5.2994    4.2541   54.8848 C.3     1  ZINC000464867530    0.0700
      6 C6         -4.8665    5.6017   55.4658 C.3     1  ZINC000464867530    0.4300
      7 F7         -5.9904    6.4156   55.6435 F       1  ZINC000464867530   -0.1700
      8 F8         -4.2387    5.3977   56.6992 F       1  ZINC000464867530   -0.1800
      9 F9         -3.9746    6.2240   54.5857 F       1  ZINC000464867530   -0.1800
     10 C10        -4.2521    2.9034   53.1480 C.2     1  ZINC000464867530    0.5300
     11 O11        -3.2887    2.3394   52.6740 O.2     1  ZINC000464867530   -0.5100
     12 C12        -5.5792    2.8557   52.4356 C.3     1  ZINC000464867530   -0.1200
     13 H13        -6.3862    2.8741   53.1681 H       1  ZINC000464867530    0.1000
     14 C14        -5.6692    1.5711   51.6087 C.3     1  ZINC000464867530   -0.1200
     15 C15        -7.0296    1.5059   50.9109 C.3     1  ZINC000464867530   -0.1300
     16 C16        -7.1710    2.7015   49.9636 C.3     1  ZINC000464867530    0.1000
     17 N17        -6.9417    3.9373   50.7245 N.am    1  ZINC000464867530   -0.6100
     18 C18        -7.8496    4.9333   50.7063 C.2     1  ZINC000464867530    0.5500
     19 O19        -7.6480    5.9492   51.3374 O.2     1  ZINC000464867530   -0.5300
     20 C20        -9.1151    4.7848   49.9016 C.3     1  ZINC000464867530   -0.1700
     21 H21        -8.9956    4.3353   48.9158 H       1  ZINC000464867530    0.1300
     22 C22       -10.1853    5.8684   50.0599 C.3     1  ZINC000464867530   -0.1300
     23 C23       -10.4014    4.4836   50.6615 C.3     1  ZINC000464867530   -0.0600
     24 C24       -10.3934    4.2662   52.1838 C.3     1  ZINC000464867530   -0.0900
     25 C25       -10.9010    2.8126   52.3092 C.3     1  ZINC000464867530   -0.0800
     26 C26       -11.7301    2.5722   51.0651 C.ar    1  ZINC000464867530   -0.0900
     27 C27       -12.6637    1.5891   50.7860 C.ar    1  ZINC000464867530   -0.1100
     28 C28       -13.3055    1.5656   49.5629 C.ar    1  ZINC000464867530   -0.1100
     29 C29       -13.0149    2.5269   48.6134 C.ar    1  ZINC000464867530   -0.1200
     30 C30       -12.0838    3.5092   48.8895 C.ar    1  ZINC000464867530   -0.1000
     31 C31       -11.4392    3.5356   50.1146 C.ar    1  ZINC000464867530   -0.0700
     32 C32        -5.7045    4.0671   51.5063 C.3     1  ZINC000464867530    0.1300
     33 H33        -0.7044    2.3971   56.1676 H       1  ZINC000464867530    0.0600
     34 H34        -1.3246    3.6526   57.2664 H       1  ZINC000464867530    0.0600
     35 H35        -1.4985    1.9329   57.6915 H       1  ZINC000464867530    0.0600
     36 H36        -3.0201    1.6095   55.7606 H       1  ZINC000464867530    0.0700
     37 H37        -3.6403    2.8649   56.8594 H       1  ZINC000464867530    0.0700
     38 H38        -2.6813    4.6214   55.4001 H       1  ZINC000464867530    0.0900
     39 H39        -2.0483    3.3696   54.3045 H       1  ZINC000464867530    0.0900
     40 H40        -6.0448    4.4167   54.1063 H       1  ZINC000464867530    0.1300
     41 H41        -5.7282    3.6384   55.6755 H       1  ZINC000464867530    0.1200
     42 H42        -4.8766    1.5646   50.8605 H       1  ZINC000464867530    0.0800
     43 H43        -5.5558    0.7082   52.2649 H       1  ZINC000464867530    0.0800
     44 H44        -7.1020    0.5796   50.3409 H       1  ZINC000464867530    0.0900
     45 H45        -7.8233    1.5373   51.6573 H       1  ZINC000464867530    0.0700
     46 H46        -6.4348    2.6230   49.1637 H       1  ZINC000464867530    0.0700
     47 H47        -8.1748    2.7147   49.5391 H       1  ZINC000464867530    0.0900
     48 H48        -9.9739    6.6885   50.7461 H       1  ZINC000464867530    0.1100
     49 H49       -10.7703    6.1311   49.1785 H       1  ZINC000464867530    0.1100
     50 H50        -9.3839    4.3605   52.5840 H       1  ZINC000464867530    0.0700
     51 H51       -11.0743    4.9591   52.6784 H       1  ZINC000464867530    0.0800
     52 H52       -10.0600    2.1201   52.3426 H       1  ZINC000464867530    0.0800
     53 H53       -11.5177    2.7032   53.2013 H       1  ZINC000464867530    0.0800
     54 H54       -12.8911    0.8373   51.5272 H       1  ZINC000464867530    0.1200
     55 H55       -14.0331    0.7967   49.3488 H       1  ZINC000464867530    0.1300
     56 H56       -13.5151    2.5100   47.6564 H       1  ZINC000464867530    0.1300
     57 H57       -11.8573    4.2596   48.1464 H       1  ZINC000464867530    0.1200
     58 H58        -5.7409    4.9811   52.0990 H       1  ZINC000464867530    0.1000
     59 H59        -4.8482    4.0999   50.8325 H       1  ZINC000464867530    0.0800
@<TRIPOS>BOND
     1     1     2    1
     2     1    33    1
     3     1    34    1
     4     1    35    1
     5     2     3    1
     6     2    36    1
     7     2    37    1
     8     3     4    1
     9     3    38    1
    10     3    39    1
    11     4     5    1
    12     4    10   am
    13     5     6    1
    14     5    40    1
    15     5    41    1
    16     6     7    1
    17     6     8    1
    18     6     9    1
    19    10    11    2
    20    10    12    1
    21    12    13    1
    22    12    32    1
    23    12    14    1
    24    14    15    1
    25    14    42    1
    26    14    43    1
    27    15    16    1
    28    15    44    1
    29    15    45    1
    30    16    17    1
    31    16    46    1
    32    16    47    1
    33    17    18   am
    34    17    32    1
    35    18    19    2
    36    18    20    1
    37    20    21    1
    38    20    23    1
    39    20    22    1
    40    22    23    1
    41    22    48    1
    42    22    49    1
    43    23    31    1
    44    23    24    1
    45    24    25    1
    46    24    50    1
    47    24    51    1
    48    25    26    1
    49    25    52    1
    50    25    53    1
    51    26    31   ar
    52    26    27   ar
    53    27    28   ar
    54    27    54    1
    55    28    29   ar
    56    28    55    1
    57    29    30   ar
    58    29    56    1
    59    30    31   ar
    60    30    57    1
    61    32    58    1
    62    32    59    1
@<TRIPOS>SUBSTRUCTURE
     1 ZINC000464867530        1 TEMP              0 ****  ****    0 ROOT


##########                                Name:    ZINC001087843226
##########                DOCK_Rotatable_Bonds:                   6
##########                         Heavy_Atoms:                  27
##########                    Molecular_Weight:             368.479
##########                DOCK_Rotatable_Bonds:                   6
##########                       Formal_Charge:        -4.47035e-07
##########                     HBond_Acceptors:                   6
##########                        HBond_Donors:                   1
##########                         Heavy_Atoms:                  27
##########                          Grid_Score:          -29.727957
##########                     Grid_vdw_energy:          -26.886990
##########                      Grid_es_energy:           -2.840968
##########           Internal_energy_repulsive:           28.303890

@<TRIPOS>MOLECULE
ZINC001087843226
 55 58 1 0 0
SMALL
USER_CHARGES


@<TRIPOS>ATOM
      1 C1         -9.2605    0.1216   59.4302 C.3     1  ZINC001087843226   -0.1500
      2 C2         -9.0070    0.1817   60.9378 C.3     1  ZINC001087843226   -0.1500
      3 C3        -10.2454   -0.3194   61.6836 C.3     1  ZINC001087843226    0.0700
      4 H4        -10.4025   -1.3771   61.4726 H       1  ZINC001087843226    0.1000
      5 C5        -11.4841    0.4922   61.2491 C.3     1  ZINC001087843226    0.1300
      6 H6        -11.1888    1.4647   60.8552 H       1  ZINC001087843226    0.1000
      7 N7        -12.2679   -0.2496   60.2584 N.am    1  ZINC001087843226   -0.7200
      8 C8        -13.2317    0.3772   59.5551 C.2     1  ZINC001087843226    0.5600
      9 O9        -13.4516    1.5577   59.7438 O.2     1  ZINC001087843226   -0.5300
     10 C10       -14.0216   -0.3710   58.5540 C.ar    1  ZINC001087843226   -0.1400
     11 C11       -14.0992    0.0896   57.2400 C.ar    1  ZINC001087843226   -0.0800
     12 C12       -14.8379   -0.6131   56.3104 C.ar    1  ZINC001087843226   -0.1300
     13 C13       -15.4982   -1.7696   56.6806 C.ar    1  ZINC001087843226   -0.0400
     14 C14       -16.3026   -2.5308   55.6586 C.3     1  ZINC001087843226   -0.1200
     15 C15       -15.4261   -2.2350   57.9848 C.ar    1  ZINC001087843226   -0.1100
     16 C16       -14.6869   -1.5443   58.9222 C.ar    1  ZINC001087843226   -0.0300
     17 C17       -14.7665   -2.2486   60.2595 C.3     1  ZINC001087843226   -0.0800
     18 C18       -15.9803   -3.1953   60.1453 C.3     1  ZINC001087843226   -0.1200
     19 C19       -16.0510   -3.4568   58.6243 C.3     1  ZINC001087843226   -0.0800
     20 C20       -12.2775    0.6542   62.5724 C.3     1  ZINC001087843226   -0.1400
     21 C21       -11.1340    0.8033   63.6066 C.3     1  ZINC001087843226    0.0400
     22 N22       -10.0735   -0.1173   63.1340 N.3     1  ZINC001087843226   -0.5100
     23 C23        -8.7390    0.4172   63.4364 C.3     1  ZINC001087843226    0.1100
     24 C24        -8.5171    0.4007   64.9269 C.2     1  ZINC001087843226    0.0800
     25 N25        -8.5265   -0.6613   65.6758 N.2     1  ZINC001087843226   -0.2700
     26 O26        -8.2784   -0.2431   67.0087 O.3     1  ZINC001087843226    0.0300
     27 N27        -8.1236    1.1666   66.9636 N.2     1  ZINC001087843226   -0.2800
     28 C28        -8.2613    1.5335   65.7246 C.2     1  ZINC001087843226    0.0900
     29 C29        -8.1721    2.9512   65.2212 C.3     1  ZINC001087843226   -0.0900
     30 H30        -8.4055    0.5423   58.9010 H       1  ZINC001087843226    0.0600
     31 H31        -9.4011   -0.9158   59.1265 H       1  ZINC001087843226    0.0600
     32 H32       -10.1554    0.6952   59.1890 H       1  ZINC001087843226    0.0600
     33 H33        -8.1529   -0.4475   61.1881 H       1  ZINC001087843226    0.0800
     34 H34        -8.7984    1.2108   61.2304 H       1  ZINC001087843226    0.0700
     35 H35       -12.0933   -1.1920   60.1086 H       1  ZINC001087843226    0.4000
     36 H36       -13.5834    0.9933   56.9512 H       1  ZINC001087843226    0.1300
     37 H37       -14.9005   -0.2589   55.2921 H       1  ZINC001087843226    0.1300
     38 H38       -15.6648   -3.2670   55.1693 H       1  ZINC001087843226    0.0800
     39 H39       -17.1307   -3.0388   56.1529 H       1  ZINC001087843226    0.0700
     40 H40       -16.6940   -1.8373   54.9143 H       1  ZINC001087843226    0.0700
     41 H41       -13.8563   -2.8206   60.4406 H       1  ZINC001087843226    0.0800
     42 H42       -14.9249   -1.5251   61.0592 H       1  ZINC001087843226    0.0900
     43 H43       -15.8004   -4.1233   60.6882 H       1  ZINC001087843226    0.0800
     44 H44       -16.8875   -2.7067   60.5006 H       1  ZINC001087843226    0.0700
     45 H45       -17.0886   -3.5572   58.3057 H       1  ZINC001087843226    0.0800
     46 H46       -15.4874   -4.3539   58.3682 H       1  ZINC001087843226    0.0800
     47 H47       -12.9003    1.5485   62.5472 H       1  ZINC001087843226    0.0800
     48 H48       -12.8776   -0.2320   62.7788 H       1  ZINC001087843226    0.0800
     49 H49       -10.7679    1.8299   63.6222 H       1  ZINC001087843226    0.0600
     50 H50       -11.4777    0.5071   64.5977 H       1  ZINC001087843226    0.0800
     51 H51        -7.9823   -0.1979   62.9496 H       1  ZINC001087843226    0.1200
     52 H52        -8.6661    1.4411   63.0695 H       1  ZINC001087843226    0.0700
     53 H53        -7.1606    3.1473   64.8653 H       1  ZINC001087843226    0.1000
     54 H54        -8.8786    3.0913   64.4030 H       1  ZINC001087843226    0.0900
     55 H55        -8.4124    3.6401   66.0309 H       1  ZINC001087843226    0.0900
@<TRIPOS>BOND
     1     1     2    1
     2     1    30    1
     3     1    31    1
     4     1    32    1
     5     2     3    1
     6     2    33    1
     7     2    34    1
     8     3     4    1
     9     3    22    1
    10     3     5    1
    11     5     6    1
    12     5     7    1
    13     5    20    1
    14     7     8   am
    15     7    35    1
    16     8     9    2
    17     8    10    1
    18    10    16   ar
    19    10    11   ar
    20    11    12   ar
    21    11    36    1
    22    12    13   ar
    23    12    37    1
    24    13    14    1
    25    13    15   ar
    26    14    38    1
    27    14    39    1
    28    14    40    1
    29    15    19    1
    30    15    16   ar
    31    16    17    1
    32    17    18    1
    33    17    41    1
    34    17    42    1
    35    18    19    1
    36    18    43    1
    37    18    44    1
    38    19    45    1
    39    19    46    1
    40    20    21    1
    41    20    47    1
    42    20    48    1
    43    21    22    1
    44    21    49    1
    45    21    50    1
    46    22    23    1
    47    23    24    1
    48    23    51    1
    49    23    52    1
    50    24    28    1
    51    24    25    2
    52    25    26    1
    53    26    27    1
    54    27    28    2
    55    28    29    1
    56    29    53    1
    57    29    54    1
    58    29    55    1
@<TRIPOS>SUBSTRUCTURE
     1 ZINC001087843226        1 TEMP              0 ****  ****    0 ROOT


##########                                Name:    ZINC000846412382
##########                DOCK_Rotatable_Bonds:                   6
##########                         Heavy_Atoms:                  26
##########                    Molecular_Weight:             370.475
##########                DOCK_Rotatable_Bonds:                   6
##########                       Formal_Charge:               -0.03
##########                     HBond_Acceptors:                   7
##########                        HBond_Donors:                   4
##########                         Heavy_Atoms:                  26
##########                          Grid_Score:          -29.724417
##########                     Grid_vdw_energy:          -29.010527
##########                      Grid_es_energy:           -0.713891
##########           Internal_energy_repulsive:           22.862495

@<TRIPOS>MOLECULE
ZINC000846412382
 48 50 1 0 0
SMALL
USER_CHARGES


@<TRIPOS>ATOM
      1 C1        -15.2322   -1.3797   60.5865 C.3     1  ZINC000846412382   -0.1400
      2 C2        -14.2605   -1.7312   59.4896 C.2     1  ZINC000846412382    0.0300
      3 C3        -13.1570   -1.0100   59.2545 C.2     1  ZINC000846412382   -0.2700
      4 C4        -12.7618    0.1830   60.0132 C.2     1  ZINC000846412382    0.6000
      5 O5        -13.2055    1.2737   59.7067 O.2     1  ZINC000846412382   -0.5200
      6 N6        -11.9073    0.0700   61.0493 N.am    1  ZINC000846412382   -0.7100
      7 C7        -11.5114    1.2608   61.8055 C.3     1  ZINC000846412382    0.1200
      8 H8        -11.8645    2.1533   61.2888 H       1  ZINC000846412382    0.1000
      9 C9        -12.1273    1.2044   63.2049 C.3     1  ZINC000846412382   -0.1700
     10 C10        -9.9866    1.3081   61.9209 C.3     1  ZINC000846412382    0.1700
     11 C11        -9.4729   -0.0347   62.4443 C.3     1  ZINC000846412382   -0.1400
     12 O12        -9.6093    2.3479   62.8257 O.3     1  ZINC000846412382   -0.5500
     13 C13        -9.3883    1.5807   60.5648 C.ar    1  ZINC000846412382   -0.1200
     14 C14        -9.4925    2.8398   60.0038 C.ar    1  ZINC000846412382   -0.1100
     15 C15        -8.9438    3.0898   58.7599 C.ar    1  ZINC000846412382   -0.1200
     16 C16        -8.2903    2.0809   58.0773 C.ar    1  ZINC000846412382   -0.1200
     17 C17        -8.1853    0.8220   58.6388 C.ar    1  ZINC000846412382   -0.1200
     18 C18        -8.7304    0.5732   59.8845 C.ar    1  ZINC000846412382   -0.1000
     19 S19       -12.2482   -1.6878   57.9143 S.3     1  ZINC000846412382    0.2000
     20 C20       -13.4276   -2.9744   57.7008 C.ar    1  ZINC000846412382    0.1400
     21 N21       -13.4803   -3.9886   56.8298 N.ar    1  ZINC000846412382   -0.5300
     22 C22       -14.4724   -4.8491   56.8505 C.ar    1  ZINC000846412382    0.3900
     23 C23       -14.4823   -5.9731   55.8469 C.3     1  ZINC000846412382   -0.0900
     24 N24       -15.4612   -4.7625   57.7216 N.ar    1  ZINC000846412382   -0.5800
     25 C25       -15.4997   -3.7944   58.6245 C.ar    1  ZINC000846412382    0.5100
     26 N26       -16.5408   -3.7190   59.5275 N.pl3   1  ZINC000846412382   -0.8300
     27 C27       -14.4476   -2.8360   58.6524 C.ar    1  ZINC000846412382   -0.2500
     28 H28       -14.9944   -1.9559   61.4807 H       1  ZINC000846412382    0.0800
     29 H29       -15.1587   -0.3154   60.8098 H       1  ZINC000846412382    0.1100
     30 H30       -16.2462   -1.6138   60.2623 H       1  ZINC000846412382    0.0700
     31 H31       -11.5544   -0.7996   61.2945 H       1  ZINC000846412382    0.4000
     32 H32       -11.7741    0.3120   63.7215 H       1  ZINC000846412382    0.0600
     33 H33       -11.8328    2.0904   63.7675 H       1  ZINC000846412382    0.0800
     34 H34       -13.2136    1.1707   63.1227 H       1  ZINC000846412382    0.0700
     35 H35        -9.7606   -0.8278   61.7542 H       1  ZINC000846412382    0.0700
     36 H36        -8.3865   -0.0010   62.5266 H       1  ZINC000846412382    0.0700
     37 H37        -9.9056   -0.2318   63.4251 H       1  ZINC000846412382    0.0700
     38 H38        -8.7338    2.2286   63.2187 H       1  ZINC000846412382    0.3800
     39 H39       -10.0031    3.6280   60.5372 H       1  ZINC000846412382    0.1300
     40 H40        -9.0258    4.0733   58.3213 H       1  ZINC000846412382    0.1200
     41 H41        -7.8622    2.2761   57.1052 H       1  ZINC000846412382    0.1200
     42 H42        -7.6751    0.0337   58.1053 H       1  ZINC000846412382    0.1200
     43 H43        -8.6484   -0.4104   60.3231 H       1  ZINC000846412382    0.1300
     44 H44       -13.9587   -6.8348   56.2611 H       1  ZINC000846412382    0.0900
     45 H45       -15.5123   -6.2485   55.6200 H       1  ZINC000846412382    0.0900
     46 H46       -13.9832   -5.6493   54.9336 H       1  ZINC000846412382    0.0900
     47 H47       -17.3882   -4.1466   59.3275 H       1  ZINC000846412382    0.4100
     48 H48       -16.4250   -3.2386   60.3621 H       1  ZINC000846412382    0.4200
@<TRIPOS>BOND
     1     1     2    1
     2     1    28    1
     3     1    29    1
     4     1    30    1
     5     2    27    1
     6     2     3    2
     7     3     4    1
     8     3    19    1
     9     4     5    2
    10     4     6   am
    11     6     7    1
    12     6    31    1
    13     7     8    1
    14     7     9    1
    15     7    10    1
    16     9    32    1
    17     9    33    1
    18     9    34    1
    19    10    11    1
    20    10    12    1
    21    10    13    1
    22    11    35    1
    23    11    36    1
    24    11    37    1
    25    12    38    1
    26    13    18   ar
    27    13    14   ar
    28    14    15   ar
    29    14    39    1
    30    15    16   ar
    31    15    40    1
    32    16    17   ar
    33    16    41    1
    34    17    18   ar
    35    17    42    1
    36    18    43    1
    37    19    20    1
    38    20    27   ar
    39    20    21   ar
    40    21    22   ar
    41    22    23    1
    42    22    24   ar
    43    23    44    1
    44    23    45    1
    45    23    46    1
    46    24    25   ar
    47    25    26    1
    48    25    27   ar
    49    26    47    1
    50    26    48    1
@<TRIPOS>SUBSTRUCTURE
     1 ZINC000846412382        1 TEMP              0 ****  ****    0 ROOT


##########                                Name:    ZINC000185180600
##########                DOCK_Rotatable_Bonds:                   7
##########                         Heavy_Atoms:                  26
##########                    Molecular_Weight:             395.953
##########                DOCK_Rotatable_Bonds:                   7
##########                       Formal_Charge:          0.00999977
##########                     HBond_Acceptors:                   7
##########                        HBond_Donors:                   0
##########                         Heavy_Atoms:                  26
##########                          Grid_Score:          -29.720457
##########                     Grid_vdw_energy:          -30.556517
##########                      Grid_es_energy:            0.836060
##########           Internal_energy_repulsive:           50.708344

@<TRIPOS>MOLECULE
ZINC000185180600
 52 53 1 0 0
SMALL
USER_CHARGES


@<TRIPOS>ATOM
      1 C1         -5.1500    1.8073   65.3716 C.3     1  ZINC000185180600   -0.1500
      2 C2         -5.5487    3.1108   66.0664 C.3     1  ZINC000185180600   -0.0900
      3 C3         -4.6369    4.2429   65.5888 C.3     1  ZINC000185180600   -0.1500
      4 C4         -7.0015    3.4474   65.7245 C.3     1  ZINC000185180600   -0.1300
      5 C5         -7.9207    2.9169   66.8265 C.3     1  ZINC000185180600    0.1300
      6 H6         -8.9605    3.0499   66.5278 H       1  ZINC000185180600    0.1100
      7 C7         -7.6599    3.6868   68.1228 C.3     1  ZINC000185180600   -0.1600
      8 N8         -7.6531    1.4927   67.0421 N.am    1  ZINC000185180600   -0.6000
      9 C9         -6.7616    1.0708   68.1254 C.3     1  ZINC000185180600    0.0700
     10 C10        -8.2269    0.5708   66.2440 C.2     1  ZINC000185180600    0.5400
     11 O11        -8.0064   -0.6083   66.4235 O.2     1  ZINC000185180600   -0.5300
     12 C12        -9.1425    1.0048   65.1285 C.3     1  ZINC000185180600   -0.5000
     13 S13        -9.1327   -0.2478   63.8164 S.o     1  ZINC000185180600    1.3200
     14 O14        -7.8295   -0.3375   63.2569 O.2     1  ZINC000185180600   -0.8000
     15 C15       -10.2729    0.4418   62.5855 C.3     1  ZINC000185180600   -0.3900
     16 C16       -10.3747   -0.4986   61.4125 C.2     1  ZINC000185180600    0.1000
     17 N17       -11.4814   -0.8694   60.8203 N.2     1  ZINC000185180600   -0.2800
     18 N18       -11.1488   -1.7458   59.7792 N.pl3   1  ZINC000185180600   -0.3200
     19 C19       -12.0506   -2.3667   58.9033 C.ar    1  ZINC000185180600    0.1700
     20 C20       -13.3756   -2.5421   59.2788 C.ar    1  ZINC000185180600   -0.1300
     21 C21       -14.2620   -3.1541   58.4144 C.ar    1  ZINC000185180600   -0.0800
     22 C22       -13.8301   -3.5928   57.1749 C.ar    1  ZINC000185180600   -0.0500
     23 Cl23      -14.9467   -4.3616   56.0905 Cl      1  ZINC000185180600   -0.0600
     24 C24       -12.5098   -3.4190   56.7983 C.ar    1  ZINC000185180600   -0.0800
     25 C25       -11.6212   -2.8021   57.6569 C.ar    1  ZINC000185180600   -0.1100
     26 C26        -9.8041   -1.8868   59.7686 C.2     1  ZINC000185180600    0.0600
     27 C27        -9.3018   -1.1210   60.7650 C.2     1  ZINC000185180600   -0.2500
     28 H28        -4.1149    1.5676   65.6151 H       1  ZINC000185180600    0.0500
     29 H29        -5.7994    1.0008   65.7118 H       1  ZINC000185180600    0.0600
     30 H30        -5.2515    1.9250   64.2927 H       1  ZINC000185180600    0.0500
     31 H31        -5.4471    2.9933   67.1453 H       1  ZINC000185180600    0.0700
     32 H32        -3.6131    4.0429   65.9050 H       1  ZINC000185180600    0.0500
     33 H33        -4.6755    4.3062   64.5013 H       1  ZINC000185180600    0.0500
     34 H34        -4.9726    5.1861   66.0198 H       1  ZINC000185180600    0.0500
     35 H35        -7.1151    4.5285   65.6458 H       1  ZINC000185180600    0.0700
     36 H36        -7.2680    2.9839   64.7747 H       1  ZINC000185180600    0.0800
     37 H37        -6.6201    3.5536   68.4215 H       1  ZINC000185180600    0.0600
     38 H38        -7.8591    4.7463   67.9623 H       1  ZINC000185180600    0.0700
     39 H39        -8.3148    3.3088   68.9079 H       1  ZINC000185180600    0.0600
     40 H40        -7.3432    0.9121   69.0336 H       1  ZINC000185180600    0.0600
     41 H41        -6.2641    0.1422   67.8457 H       1  ZINC000185180600    0.0700
     42 H42        -6.0143    1.8441   68.3031 H       1  ZINC000185180600    0.0800
     43 H43       -10.1556    1.1193   65.5138 H       1  ZINC000185180600    0.1500
     44 H44        -8.7974    1.9566   64.7247 H       1  ZINC000185180600    0.1200
     45 H45       -11.2578    0.5706   63.0344 H       1  ZINC000185180600    0.1400
     46 H46        -9.8996    1.4078   62.2453 H       1  ZINC000185180600    0.1000
     47 H47       -13.7128   -2.2006   60.2463 H       1  ZINC000185180600    0.1400
     48 H48       -15.2928   -3.2908   58.7061 H       1  ZINC000185180600    0.1500
     49 H49       -12.1751   -3.7625   55.8307 H       1  ZINC000185180600    0.1400
     50 H50       -10.5909   -2.6667   57.3625 H       1  ZINC000185180600    0.1500
     51 H51        -9.2329   -2.4972   59.0847 H       1  ZINC000185180600    0.1800
     52 H52        -8.2578   -1.0151   61.0201 H       1  ZINC000185180600    0.1700
@<TRIPOS>BOND
     1     1     2    1
     2     1    28    1
     3     1    29    1
     4     1    30    1
     5     2     3    1
     6     2     4    1
     7     2    31    1
     8     3    32    1
     9     3    33    1
    10     3    34    1
    11     4     5    1
    12     4    35    1
    13     4    36    1
    14     5     6    1
    15     5     7    1
    16     5     8    1
    17     7    37    1
    18     7    38    1
    19     7    39    1
    20     8     9    1
    21     8    10   am
    22     9    40    1
    23     9    41    1
    24     9    42    1
    25    10    11    2
    26    10    12    1
    27    12    13    1
    28    12    43    1
    29    12    44    1
    30    13    14    2
    31    13    15    1
    32    15    16    1
    33    15    45    1
    34    15    46    1
    35    16    27    1
    36    16    17    2
    37    17    18    1
    38    18    19    1
    39    18    26    1
    40    19    25   ar
    41    19    20   ar
    42    20    21   ar
    43    20    47    1
    44    21    22   ar
    45    21    48    1
    46    22    23    1
    47    22    24   ar
    48    24    25   ar
    49    24    49    1
    50    25    50    1
    51    26    27    2
    52    26    51    1
    53    27    52    1
@<TRIPOS>SUBSTRUCTURE
     1 ZINC000185180600        1 TEMP              0 ****  ****    0 ROOT


##########                                Name:    ZINC000573650873
##########                DOCK_Rotatable_Bonds:                  10
##########                         Heavy_Atoms:                  28
##########                    Molecular_Weight:             418.843
##########                DOCK_Rotatable_Bonds:                  10
##########                       Formal_Charge:          -0.0500001
##########                     HBond_Acceptors:                   9
##########                        HBond_Donors:                   1
##########                         Heavy_Atoms:                  28
##########                          Grid_Score:          -29.710506
##########                     Grid_vdw_energy:          -27.262928
##########                      Grid_es_energy:           -2.447579
##########           Internal_energy_repulsive:           14.878862

@<TRIPOS>MOLECULE
ZINC000573650873
 50 51 1 0 0
SMALL
USER_CHARGES


@<TRIPOS>ATOM
      1 C1         -8.1518   -0.4147   66.4539 C.3     1  ZINC000573650873   -0.1400
      2 C2         -8.8128    0.8678   65.9447 C.3     1  ZINC000573650873    0.0100
      3 C3         -9.7434    1.4251   67.0238 C.3     1  ZINC000573650873   -0.1400
      4 C4         -7.7340    1.9024   65.6177 C.3     1  ZINC000573650873   -0.1500
      5 C5         -9.6097    0.5632   64.7025 C.2     1  ZINC000573650873   -0.0100
      6 C6         -9.1810   -0.1167   63.6139 C.2     1  ZINC000573650873   -0.1800
      7 C7        -10.3086   -0.1201   62.7465 C.2     1  ZINC000573650873   -0.0300
      8 C8        -10.3954   -0.7359   61.3999 C.2     1  ZINC000573650873    0.6000
      9 O9        -10.9607   -1.8015   61.2545 O.2     1  ZINC000573650873   -0.5100
     10 N10        -9.8473   -0.1134   60.3375 N.am    1  ZINC000573650873   -0.5900
     11 C11        -9.9331   -0.7216   59.0075 C.3     1  ZINC000573650873    0.1200
     12 C12       -11.3684   -0.6135   58.4889 C.3     1  ZINC000573650873   -0.1000
     13 C13       -11.3940   -0.9196   57.0136 C.ar    1  ZINC000573650873   -0.0800
     14 C14       -11.4425   -2.2317   56.5810 C.ar    1  ZINC000573650873   -0.1000
     15 C15       -11.4659   -2.5133   55.2280 C.ar    1  ZINC000573650873   -0.1100
     16 C16       -11.4408   -1.4816   54.3066 C.ar    1  ZINC000573650873   -0.0400
     17 Cl17      -11.4709   -1.8343   52.6070 Cl      1  ZINC000573650873   -0.0700
     18 C18       -11.3923   -0.1686   54.7401 C.ar    1  ZINC000573650873   -0.1100
     19 C19       -11.3746    0.1118   56.0935 C.ar    1  ZINC000573650873   -0.1000
     20 C20        -9.1656    1.1714   60.5129 C.3     1  ZINC000573650873    0.0700
     21 C21       -10.2049    2.2805   60.6883 C.3     1  ZINC000573650873    0.0600
     22 H22       -11.2017    1.8414   60.7279 H       1  ZINC000573650873    0.1400
     23 O23        -9.9470    2.9871   61.9033 O.3     1  ZINC000573650873   -0.5200
     24 C24       -10.1210    3.2494   59.5071 C.3     1  ZINC000573650873    0.4300
     25 F25       -11.0502    4.2805   59.6827 F       1  ZINC000573650873   -0.1700
     26 F26        -8.8325    3.7897   59.4379 F       1  ZINC000573650873   -0.1700
     27 F27       -10.4036    2.5640   58.3207 F       1  ZINC000573650873   -0.1800
     28 N28       -11.2549    0.5298   63.3773 N.2     1  ZINC000573650873   -0.3400
     29 O29       -10.8825    0.9082   64.4636 O.3     1  ZINC000573650873    0.1300
     30 H30        -8.9204   -1.1517   66.6869 H       1  ZINC000573650873    0.0600
     31 H31        -7.4889   -0.8116   65.6852 H       1  ZINC000573650873    0.0600
     32 H32        -7.5754   -0.1943   67.3523 H       1  ZINC000573650873    0.0700
     33 H33        -9.1669    1.6454   67.9223 H       1  ZINC000573650873    0.0700
     34 H34       -10.2141    2.3388   66.6610 H       1  ZINC000573650873    0.0600
     35 H35       -10.5119    0.6881   67.2568 H       1  ZINC000573650873    0.0600
     36 H36        -7.0710    1.5054   64.8489 H       1  ZINC000573650873    0.0600
     37 H37        -8.2048    2.8160   65.2549 H       1  ZINC000573650873    0.0600
     38 H38        -7.1576    2.1226   66.5162 H       1  ZINC000573650873    0.0700
     39 H39        -8.2087   -0.5547   63.4432 H       1  ZINC000573650873    0.1800
     40 H40        -9.2603   -0.2011   58.3259 H       1  ZINC000573650873    0.0900
     41 H41        -9.6471   -1.7716   59.0691 H       1  ZINC000573650873    0.1000
     42 H42       -12.0009   -1.3258   59.0188 H       1  ZINC000573650873    0.0800
     43 H43       -11.7402    0.3974   58.6568 H       1  ZINC000573650873    0.0800
     44 H44       -11.4617   -3.0371   57.3004 H       1  ZINC000573650873    0.1300
     45 H45       -11.5034   -3.5383   54.8902 H       1  ZINC000573650873    0.1300
     46 H46       -11.3723    0.6372   54.0213 H       1  ZINC000573650873    0.1300
     47 H47       -11.3370    1.1367   56.4320 H       1  ZINC000573650873    0.1300
     48 H48        -8.5287    1.1273   61.3963 H       1  ZINC000573650873    0.1000
     49 H49        -8.5548    1.3815   59.6348 H       1  ZINC000573650873    0.1200
     50 H50        -9.0908    3.4361   61.9230 H       1  ZINC000573650873    0.3900
@<TRIPOS>BOND
     1     1     2    1
     2     1    30    1
     3     1    31    1
     4     1    32    1
     5     2     3    1
     6     2     4    1
     7     2     5    1
     8     3    33    1
     9     3    34    1
    10     3    35    1
    11     4    36    1
    12     4    37    1
    13     4    38    1
    14     5    29    1
    15     5     6    2
    16     6     7    1
    17     6    39    1
    18     7     8    1
    19     7    28    2
    20     8     9    2
    21     8    10   am
    22    10    11    1
    23    10    20    1
    24    11    12    1
    25    11    40    1
    26    11    41    1
    27    12    13    1
    28    12    42    1
    29    12    43    1
    30    13    19   ar
    31    13    14   ar
    32    14    15   ar
    33    14    44    1
    34    15    16   ar
    35    15    45    1
    36    16    17    1
    37    16    18   ar
    38    18    19   ar
    39    18    46    1
    40    19    47    1
    41    20    21    1
    42    20    48    1
    43    20    49    1
    44    21    22    1
    45    21    23    1
    46    21    24    1
    47    23    50    1
    48    24    25    1
    49    24    26    1
    50    24    27    1
    51    28    29    1
@<TRIPOS>SUBSTRUCTURE
     1 ZINC000573650873        1 TEMP              0 ****  ****    0 ROOT


##########                                Name:    ZINC001053792610
##########                DOCK_Rotatable_Bonds:                   5
##########                         Heavy_Atoms:                  25
##########                    Molecular_Weight:             347.374
##########                DOCK_Rotatable_Bonds:                   5
##########                       Formal_Charge:          -0.0400001
##########                     HBond_Acceptors:                   9
##########                        HBond_Donors:                   2
##########                         Heavy_Atoms:                  25
##########                          Grid_Score:          -29.710449
##########                     Grid_vdw_energy:          -31.547699
##########                      Grid_es_energy:            1.837251
##########           Internal_energy_repulsive:            4.277673

@<TRIPOS>MOLECULE
ZINC001053792610
 46 49 1 0 0
SMALL
USER_CHARGES


@<TRIPOS>ATOM
      1 C1         -8.1545   -0.0980   66.1397 C.3     1  ZINC001053792610   -0.1000
      2 C2         -8.7924    0.0003   64.7779 C.ar    1  ZINC001053792610    0.0800
      3 C3        -10.0370    0.5880   64.6378 C.ar    1  ZINC001053792610    0.0600
      4 N4        -10.5964    0.6741   63.4436 N.ar    1  ZINC001053792610   -0.4200
      5 C5         -9.9672    0.1991   62.3835 C.ar    1  ZINC001053792610    0.0800
      6 C6        -10.6049    0.2978   61.0216 C.3     1  ZINC001053792610    0.0700
      7 N7        -10.3406   -0.9343   60.2667 N.3     1  ZINC001053792610   -0.4500
      8 C8        -10.6607   -0.7573   58.8365 C.3     1  ZINC001053792610   -0.0100
      9 C9        -11.2881   -2.1496   58.8669 C.3     1  ZINC001053792610    0.0800
     10 C10       -11.4839   -1.8640   60.3544 C.3     1  ZINC001053792610   -0.0100
     11 C11       -12.5829   -2.3017   58.0532 C.3     1  ZINC001053792610   -0.1500
     12 C12       -12.1268   -3.2289   56.8916 C.3     1  ZINC001053792610    0.1100
     13 H13       -12.9566   -3.8304   56.5204 H       1  ZINC001053792610    0.1200
     14 N14       -11.5145   -2.4554   55.8085 N.am    1  ZINC001053792610   -0.7100
     15 C15       -12.2821   -1.9551   54.8202 C.2     1  ZINC001053792610    0.5000
     16 O16       -13.4801   -2.1440   54.8281 O.2     1  ZINC001053792610   -0.5100
     17 C17       -11.6519   -1.1610   53.7052 C.3     1  ZINC001053792610    0.0800
     18 H18       -10.7011   -0.7371   54.0283 H       1  ZINC001053792610    0.1300
     19 C19       -11.4550   -2.0427   52.4569 C.3     1  ZINC001053792610    0.0500
     20 O20       -12.2679   -1.3950   51.4358 O.3     1  ZINC001053792610   -0.3200
     21 C21       -12.8583   -0.3130   51.9556 C.2     1  ZINC001053792610    0.6500
     22 O22       -13.5950    0.4117   51.3166 O.2     1  ZINC001053792610   -0.5100
     23 N23       -12.5621   -0.0997   53.2483 N.am    1  ZINC001053792610   -0.7100
     24 C24       -11.0755   -4.1118   57.6116 C.3     1  ZINC001053792610    0.0400
     25 O25       -10.4223   -3.2336   58.5458 O.3     1  ZINC001053792610   -0.3300
     26 C26        -8.7222   -0.3888   62.5235 C.ar    1  ZINC001053792610    0.0600
     27 N27        -8.1605   -0.4700   63.7167 N.ar    1  ZINC001053792610   -0.4400
     28 H28        -7.5569    0.7943   66.3262 H       1  ZINC001053792610    0.0800
     29 H29        -8.9314   -0.1803   66.8998 H       1  ZINC001053792610    0.0800
     30 H30        -7.5137   -0.9790   66.1780 H       1  ZINC001053792610    0.0800
     31 H31       -10.5514    0.9760   65.5045 H       1  ZINC001053792610    0.1700
     32 H32       -11.6809    0.4319   61.1332 H       1  ZINC001053792610    0.1000
     33 H33       -10.1864    1.1494   60.4852 H       1  ZINC001053792610    0.0600
     34 H34       -11.3799    0.0396   58.6473 H       1  ZINC001053792610    0.0800
     35 H35        -9.7793   -0.6915   58.1987 H       1  ZINC001053792610    0.0900
     36 H36       -11.2940   -2.7278   60.9916 H       1  ZINC001053792610    0.1000
     37 H37       -12.4289   -1.3708   60.5818 H       1  ZINC001053792610    0.0800
     38 H38       -13.3628   -2.7774   58.6479 H       1  ZINC001053792610    0.1000
     39 H39       -12.9192   -1.3373   57.6726 H       1  ZINC001053792610    0.1000
     40 H40       -10.5565   -2.3033   55.8028 H       1  ZINC001053792610    0.4000
     41 H41       -10.4065   -2.0553   52.1595 H       1  ZINC001053792610    0.1200
     42 H42       -11.8123   -3.0554   52.6442 H       1  ZINC001053792610    0.1100
     43 H43       -12.8962    0.6323   53.7902 H       1  ZINC001053792610    0.4400
     44 H44       -11.5663   -4.9289   58.1404 H       1  ZINC001053792610    0.0800
     45 H45       -10.3551   -4.5037   56.8936 H       1  ZINC001053792610    0.0900
     46 H46        -8.2078   -0.7771   61.6570 H       1  ZINC001053792610    0.1600
@<TRIPOS>BOND
     1     1     2    1
     2     1    28    1
     3     1    29    1
     4     1    30    1
     5     2    27   ar
     6     2     3   ar
     7     3     4   ar
     8     3    31    1
     9     4     5   ar
    10     5     6    1
    11     5    26   ar
    12     6     7    1
    13     6    32    1
    14     6    33    1
    15     7    10    1
    16     7     8    1
    17     8     9    1
    18     8    34    1
    19     8    35    1
    20     9    25    1
    21     9    10    1
    22     9    11    1
    23    10    36    1
    24    10    37    1
    25    11    12    1
    26    11    38    1
    27    11    39    1
    28    12    13    1
    29    12    14    1
    30    12    24    1
    31    14    15   am
    32    14    40    1
    33    15    16    2
    34    15    17    1
    35    17    18    1
    36    17    23    1
    37    17    19    1
    38    19    20    1
    39    19    41    1
    40    19    42    1
    41    20    21    1
    42    21    22    2
    43    21    23   am
    44    23    43    1
    45    24    25    1
    46    24    44    1
    47    24    45    1
    48    26    27   ar
    49    26    46    1
@<TRIPOS>SUBSTRUCTURE
     1 ZINC001053792610        1 TEMP              0 ****  ****    0 ROOT


##########                                Name:    ZINC000286156371
##########                DOCK_Rotatable_Bonds:                   7
##########                         Heavy_Atoms:                  25
##########                    Molecular_Weight:             350.418
##########                DOCK_Rotatable_Bonds:                   7
##########                       Formal_Charge:          0.00999908
##########                     HBond_Acceptors:                   8
##########                        HBond_Donors:                   2
##########                         Heavy_Atoms:                  25
##########                          Grid_Score:          -29.701092
##########                     Grid_vdw_energy:          -28.422562
##########                      Grid_es_energy:           -1.278531
##########           Internal_energy_repulsive:           32.037121

@<TRIPOS>MOLECULE
ZINC000286156371
 51 53 1 0 0
SMALL
USER_CHARGES


@<TRIPOS>ATOM
      1 C1         -7.2673    2.2545   56.6585 C.3     1  <0>        -0.1800
      2 C2         -8.7280    2.5962   56.9594 C.3     1  <0>         0.1400
      3 C3         -8.7937    3.5415   58.1606 C.3     1  <0>        -0.1800
      4 C4         -9.3541    3.2765   55.7403 C.3     1  <0>        -0.1400
      5 O5         -9.4577    1.3779   57.2617 O.3     1  <0>        -0.3600
      6 C6         -9.1034    0.7143   58.3783 C.2     1  <0>         0.6800
      7 O7         -8.0738    1.0029   58.9556 O.2     1  <0>        -0.5600
      8 N8         -9.8905   -0.2699   58.8558 N.am    1  <0>        -0.5800
      9 C9        -11.1605   -0.7207   58.2579 C.3     1  <0>         0.0700
     10 C10       -11.3349   -2.1792   58.7502 C.3     1  <0>         0.0900
     11 H11       -12.3862   -2.4671   58.7540 H       1  <0>         0.0900
     12 O12       -10.5618   -3.0830   57.9581 O.3     1  <0>        -0.5500
     13 C13       -10.7779   -2.0887   60.1955 C.3     1  <0>        -0.1200
     14 C14        -9.6218   -1.0762   60.0555 C.3     1  <0>         0.1500
     15 H15        -8.6757   -1.6065   59.9475 H       1  <0>         0.1100
     16 C16        -9.5730   -0.1830   61.2683 C.2     1  <0>         0.5200
     17 O17       -10.0769    0.9195   61.2302 O.2     1  <0>        -0.4900
     18 N18        -8.9694   -0.6095   62.3954 N.am    1  <0>        -0.6300
     19 C19        -8.9255    0.2205   63.5239 C.2     1  <0>         0.3000
     20 N20        -9.9375    0.5047   64.3122 N.2     1  <0>        -0.3200
     21 N21        -9.4786    1.3603   65.3162 N.pl3   1  <0>        -0.3600
     22 C22       -10.2533    1.9368   66.4194 C.3     1  <0>         0.1400
     23 C23        -9.2835    2.4399   67.4938 C.3     1  <0>        -0.1400
     24 C24        -8.2168    3.3278   66.8462 C.3     1  <0>        -0.1300
     25 C25        -7.2960    2.4592   65.9792 C.3     1  <0>        -0.0600
     26 C26        -8.1601    1.5824   65.1067 C.2     1  <0>         0.0900
     27 C27        -7.7895    0.8888   64.0130 C.2     1  <0>        -0.2600
     28 H28        -6.8212    1.7700   57.5270 H       1  <0>         0.0900
     29 H29        -7.2205    1.5812   55.8027 H       1  <0>         0.0600
     30 H30        -6.7195    3.1692   56.4315 H       1  <0>         0.0700
     31 H31        -8.2459    4.4561   57.9336 H       1  <0>         0.0700
     32 H32        -9.8343    3.7850   58.3749 H       1  <0>         0.0600
     33 H33        -8.3476    3.0569   59.0291 H       1  <0>         0.0900
     34 H34        -9.3074    2.6031   54.8845 H       1  <0>         0.0700
     35 H35       -10.3947    3.5199   55.9546 H       1  <0>         0.0700
     36 H36        -8.8063    4.1911   55.5133 H       1  <0>         0.0800
     37 H37       -11.9858   -0.1008   58.6083 H       1  <0>         0.0800
     38 H38       -11.0988   -0.6924   57.1700 H       1  <0>         0.0900
     39 H39       -10.6912   -2.9804   57.0053 H       1  <0>         0.3900
     40 H40       -11.5403   -1.7169   60.8802 H       1  <0>         0.1000
     41 H41       -10.4015   -3.0572   60.5250 H       1  <0>         0.1100
     42 H42        -8.5653   -1.4908   62.4255 H       1  <0>         0.4200
     43 H43       -10.8524    2.7688   66.0493 H       1  <0>         0.0800
     44 H44       -10.9062    1.1745   66.8446 H       1  <0>         0.0900
     45 H45        -9.8332    3.0167   68.2377 H       1  <0>         0.0900
     46 H46        -8.8032    1.5889   67.9767 H       1  <0>         0.0800
     47 H47        -8.6991    4.0813   66.2235 H       1  <0>         0.0700
     48 H48        -7.6299    3.8176   67.6232 H       1  <0>         0.0800
     49 H49        -6.6698    3.0965   65.3548 H       1  <0>         0.0900
     50 H50        -6.6680    1.8378   66.6178 H       1  <0>         0.0900
     51 H51        -6.7977    0.8543   63.5870 H       1  <0>         0.1700
@<TRIPOS>BOND
     1     1     2    1
     2     1    28    1
     3     1    29    1
     4     1    30    1
     5     2     3    1
     6     2     4    1
     7     2     5    1
     8     3    31    1
     9     3    32    1
    10     3    33    1
    11     4    34    1
    12     4    35    1
    13     4    36    1
    14     5     6    1
    15     6     7    2
    16     6     8   am
    17     8    14    1
    18     8     9    1
    19     9    10    1
    20     9    37    1
    21     9    38    1
    22    10    11    1
    23    10    12    1
    24    10    13    1
    25    12    39    1
    26    13    14    1
    27    13    40    1
    28    13    41    1
    29    14    15    1
    30    14    16    1
    31    16    17    2
    32    16    18   am
    33    18    19    1
    34    18    42    1
    35    19    27    1
    36    19    20    2
    37    20    21    1
    38    21    26    1
    39    21    22    1
    40    22    23    1
    41    22    43    1
    42    22    44    1
    43    23    24    1
    44    23    45    1
    45    23    46    1
    46    24    25    1
    47    24    47    1
    48    24    48    1
    49    25    26    1
    50    25    49    1
    51    25    50    1
    52    26    27    2
    53    27    51    1
@<TRIPOS>SUBSTRUCTURE
     1 <0>         1 TEMP              0 ****  ****    0 ROOT


##########                                Name:    ZINC000787750060
##########                DOCK_Rotatable_Bonds:                   6
##########                         Heavy_Atoms:                  24
##########                    Molecular_Weight:             347.438
##########                DOCK_Rotatable_Bonds:                   6
##########                       Formal_Charge:           0.0200003
##########                     HBond_Acceptors:                   7
##########                        HBond_Donors:                   2
##########                         Heavy_Atoms:                  24
##########                          Grid_Score:          -29.699570
##########                     Grid_vdw_energy:          -28.881811
##########                      Grid_es_energy:           -0.817758
##########           Internal_energy_repulsive:            7.192689

@<TRIPOS>MOLECULE
ZINC000787750060
 45 47 1 0 0
SMALL
USER_CHARGES


@<TRIPOS>ATOM
      1 C1        -16.0583   -3.7660   57.8768 C.3     1  ZINC000787750060   -0.1200
      2 C2        -14.7899   -3.0706   58.2994 C.ar    1  ZINC000787750060   -0.0400
      3 C3        -14.7278   -2.4406   59.5313 C.ar    1  ZINC000787750060   -0.1300
      4 C4        -13.5729   -1.8015   59.9280 C.ar    1  ZINC000787750060   -0.0700
      5 C5        -12.4593   -1.7887   59.0851 C.ar    1  ZINC000787750060   -0.1700
      6 C6        -11.2196   -1.1069   59.5036 C.2     1  ZINC000787750060    0.5600
      7 O7        -11.0213    0.0478   59.1786 O.2     1  ZINC000787750060   -0.5200
      8 N8        -10.3070   -1.7642   60.2463 N.am    1  ZINC000787750060   -0.7300
      9 C9         -9.0752   -1.0877   60.6605 C.3     1  ZINC000787750060    0.2100
     10 C10        -9.2740   -0.4710   62.0211 C.2     1  ZINC000787750060   -0.2800
     11 C11       -10.4256   -0.0116   62.5116 C.2     1  ZINC000787750060    0.0900
     12 N12       -10.3434    0.4849   63.7332 N.2     1  ZINC000787750060   -0.5200
     13 C13        -9.1753    0.4658   64.2963 C.2     1  ZINC000787750060    0.2300
     14 N14        -8.8995    0.9406   65.5690 N.3     1  ZINC000787750060   -0.4500
     15 C15        -8.6071    2.3811   65.5420 C.3     1  ZINC000787750060    0.0200
     16 C16        -8.3677    2.8746   66.9713 C.3     1  ZINC000787750060    0.0600
     17 O17        -7.3068    2.1177   67.5603 O.3     1  ZINC000787750060   -0.3800
     18 C18        -7.5585    0.7106   67.6035 C.3     1  ZINC000787750060    0.0600
     19 C19        -7.7897    0.1952   66.1804 C.3     1  ZINC000787750060    0.0300
     20 S20        -8.0269   -0.2383   63.2434 S.3     1  ZINC000787750060    0.1700
     21 C21       -12.5261   -2.4279   57.8392 C.ar    1  ZINC000787750060    0.1700
     22 O22       -11.4509   -2.4221   57.0120 O.3     1  ZINC000787750060   -0.4700
     23 C23       -13.6945   -3.0701   57.4584 C.ar    1  ZINC000787750060   -0.1200
     24 C24       -13.7727   -3.7590   56.1203 C.3     1  ZINC000787750060   -0.1200
     25 H25       -16.0312   -4.8041   58.2080 H       1  ZINC000787750060    0.0800
     26 H26       -16.9151   -3.2637   58.3259 H       1  ZINC000787750060    0.0700
     27 H27       -16.1462   -3.7333   56.7908 H       1  ZINC000787750060    0.0800
     28 H28       -15.5883   -2.4499   60.1838 H       1  ZINC000787750060    0.1300
     29 H29       -13.5292   -1.3110   60.8892 H       1  ZINC000787750060    0.1300
     30 H30       -10.4656   -2.6850   60.5066 H       1  ZINC000787750060    0.4000
     31 H31        -8.2608   -1.8108   60.7049 H       1  ZINC000787750060    0.0900
     32 H32        -8.8294   -0.3074   59.9403 H       1  ZINC000787750060    0.0800
     33 H33       -11.3508   -0.0429   61.9554 H       1  ZINC000787750060    0.1800
     34 H34        -7.7156    2.5602   64.9409 H       1  ZINC000787750060    0.0600
     35 H35        -9.4523    2.9160   65.1090 H       1  ZINC000787750060    0.1000
     36 H36        -8.0945    3.9297   66.9511 H       1  ZINC000787750060    0.1100
     37 H37        -9.2769    2.7447   67.5583 H       1  ZINC000787750060    0.0700
     38 H38        -6.7000    0.2005   68.0403 H       1  ZINC000787750060    0.1100
     39 H39        -8.4442    0.5176   68.2088 H       1  ZINC000787750060    0.0600
     40 H40        -8.0383   -0.8656   66.2136 H       1  ZINC000787750060    0.1000
     41 H41        -6.8851    0.3394   65.5896 H       1  ZINC000787750060    0.0700
     42 H42       -11.5792   -2.9263   56.1968 H       1  ZINC000787750060    0.4000
     43 H43       -13.4527   -4.7957   56.2263 H       1  ZINC000787750060    0.0700
     44 H44       -14.7999   -3.7311   55.7568 H       1  ZINC000787750060    0.0700
     45 H45       -13.1220   -3.2487   55.4103 H       1  ZINC000787750060    0.0800
@<TRIPOS>BOND
     1     1     2    1
     2     1    25    1
     3     1    26    1
     4     1    27    1
     5     2    23   ar
     6     2     3   ar
     7     3     4   ar
     8     3    28    1
     9     4     5   ar
    10     4    29    1
    11     5     6    1
    12     5    21   ar
    13     6     7    2
    14     6     8   am
    15     8     9    1
    16     8    30    1
    17     9    10    1
    18     9    31    1
    19     9    32    1
    20    10    20    1
    21    10    11    2
    22    11    12    1
    23    11    33    1
    24    12    13    2
    25    13    14    1
    26    13    20    1
    27    14    19    1
    28    14    15    1
    29    15    16    1
    30    15    34    1
    31    15    35    1
    32    16    17    1
    33    16    36    1
    34    16    37    1
    35    17    18    1
    36    18    19    1
    37    18    38    1
    38    18    39    1
    39    19    40    1
    40    19    41    1
    41    21    22    1
    42    21    23   ar
    43    22    42    1
    44    23    24    1
    45    24    43    1
    46    24    44    1
    47    24    45    1
@<TRIPOS>SUBSTRUCTURE
     1 ZINC000787750060        1 TEMP              0 ****  ****    0 ROOT


##########                                Name:    ZINC001342629575
##########                DOCK_Rotatable_Bonds:                   9
##########                         Heavy_Atoms:                  29
##########                    Molecular_Weight:             396.533
##########                DOCK_Rotatable_Bonds:                   9
##########                       Formal_Charge:         -0.00999976
##########                     HBond_Acceptors:                   6
##########                        HBond_Donors:                   0
##########                         Heavy_Atoms:                  29
##########                          Grid_Score:          -29.645220
##########                     Grid_vdw_energy:          -29.914913
##########                      Grid_es_energy:            0.269693
##########           Internal_energy_repulsive:           20.409184

@<TRIPOS>MOLECULE
ZINC001342629575
 61 64 1 0 0
SMALL
USER_CHARGES


@<TRIPOS>ATOM
      1 C1         -8.2262    1.7610   56.8843 C.2     1  ZINC001342629575   -0.1800
      2 C2         -9.2204    1.2623   57.5762 C.2     1  ZINC001342629575   -0.1600
      3 C3         -8.9443    0.4638   58.8241 C.3     1  ZINC001342629575   -0.0800
      4 C4        -10.1074    0.6307   59.8040 C.3     1  ZINC001342629575    0.0500
      5 H5        -10.5954    1.5895   59.6288 H       1  ZINC001342629575    0.0900
      6 C6        -11.1009   -0.4836   59.5990 C.2     1  ZINC001342629575    0.2000
      7 N7        -10.8668   -1.7594   59.7226 N.2     1  ZINC001342629575   -0.2700
      8 N8        -11.9355   -2.4296   59.4762 N.2     1  ZINC001342629575   -0.3000
      9 C9        -12.9168   -1.6105   59.1796 C.2     1  ZINC001342629575    0.3400
     10 N10       -14.2171   -1.9654   58.8571 N.3     1  ZINC001342629575   -0.4300
     11 C11       -14.9361   -2.4903   60.0465 C.3     1  ZINC001342629575    0.0400
     12 C12       -16.1029   -3.3155   59.4627 C.3     1  ZINC001342629575   -0.1200
     13 C13       -15.6430   -3.7125   58.0447 C.3     1  ZINC001342629575   -0.1200
     14 C14       -14.2370   -3.0938   57.8911 C.3     1  ZINC001342629575    0.0700
     15 H15       -13.4699   -3.8253   58.1451 H       1  ZINC001342629575    0.0900
     16 C16       -14.0325   -2.5814   56.4640 C.3     1  ZINC001342629575    0.1000
     17 H17       -14.9645   -2.6634   55.9047 H       1  ZINC001342629575    0.0700
     18 C18       -12.9284   -3.4035   55.7655 C.3     1  ZINC001342629575   -0.1400
     19 C19       -12.1689   -2.3162   54.9575 C.3     1  ZINC001342629575   -0.1600
     20 C20       -12.2943   -1.1006   55.9103 C.3     1  ZINC001342629575    0.0500
     21 O21       -13.6033   -1.2152   56.4952 O.3     1  ZINC001342629575   -0.3700
     22 N22       -12.4167   -0.3432   59.2544 N.pl3   1  ZINC001342629575   -0.4600
     23 C23       -13.1374    0.9081   59.0072 C.3     1  ZINC001342629575    0.1100
     24 C24       -13.5359    1.5396   60.3426 C.3     1  ZINC001342629575    0.0500
     25 O25       -14.3785    0.6381   61.0632 O.3     1  ZINC001342629575   -0.3800
     26 C26       -14.8107    1.1346   62.3316 C.3     1  ZINC001342629575    0.0300
     27 C27        -9.5847    0.5840   61.2167 C.ar    1  ZINC001342629575   -0.0900
     28 C28        -9.9578    1.5577   62.1243 C.ar    1  ZINC001342629575   -0.0900
     29 C29        -9.4784    1.5148   63.4201 C.ar    1  ZINC001342629575   -0.1200
     30 C30        -8.6261    0.4981   63.8086 C.ar    1  ZINC001342629575   -0.1200
     31 C31        -8.2537   -0.4761   62.9012 C.ar    1  ZINC001342629575   -0.1200
     32 C32        -8.7366   -0.4356   61.6066 C.ar    1  ZINC001342629575   -0.1100
     33 H33        -8.4240    2.3331   55.9899 H       1  ZINC001342629575    0.1000
     34 H34        -7.2087    1.6037   57.2106 H       1  ZINC001342629575    0.1000
     35 H35       -10.2380    1.4233   57.2523 H       1  ZINC001342629575    0.1000
     36 H36        -8.8358   -0.5893   58.5650 H       1  ZINC001342629575    0.0900
     37 H37        -8.0246    0.8206   59.2876 H       1  ZINC001342629575    0.0800
     38 H38       -14.2784   -3.1273   60.6378 H       1  ZINC001342629575    0.0600
     39 H39       -15.3176   -1.6690   60.6532 H       1  ZINC001342629575    0.0800
     40 H40       -16.2769   -4.2056   60.0672 H       1  ZINC001342629575    0.0800
     41 H41       -17.0071   -2.7091   59.4114 H       1  ZINC001342629575    0.0800
     42 H42       -15.5912   -4.7975   57.9534 H       1  ZINC001342629575    0.0800
     43 H43       -16.3215   -3.3010   57.2976 H       1  ZINC001342629575    0.0800
     44 H44       -12.2713   -3.8721   56.4981 H       1  ZINC001342629575    0.0900
     45 H45       -13.3626   -4.1492   55.0994 H       1  ZINC001342629575    0.0800
     46 H46       -11.1252   -2.5935   54.8099 H       1  ZINC001342629575    0.0800
     47 H47       -12.6600   -2.1203   54.0042 H       1  ZINC001342629575    0.0800
     48 H48       -11.5281   -1.1460   56.6843 H       1  ZINC001342629575    0.0600
     49 H49       -12.2117   -0.1699   55.3492 H       1  ZINC001342629575    0.0900
     50 H50       -12.4941    1.5955   58.4578 H       1  ZINC001342629575    0.1000
     51 H51       -14.0331    0.7018   58.4212 H       1  ZINC001342629575    0.1100
     52 H52       -12.6402    1.7464   60.9284 H       1  ZINC001342629575    0.0600
     53 H53       -14.0727    2.4702   60.1586 H       1  ZINC001342629575    0.0600
     54 H54       -15.4456    0.3922   62.8152 H       1  ZINC001342629575    0.0900
     55 H55       -13.9420    1.3339   62.9590 H       1  ZINC001342629575    0.0400
     56 H56       -15.3744    2.0565   62.1880 H       1  ZINC001342629575    0.0400
     57 H57       -10.6236    2.3520   61.8209 H       1  ZINC001342629575    0.1300
     58 H58        -9.7694    2.2759   64.1290 H       1  ZINC001342629575    0.1200
     59 H59        -8.2510    0.4650   64.8207 H       1  ZINC001342629575    0.1200
     60 H60        -7.5877   -1.2702   63.2046 H       1  ZINC001342629575    0.1200
     61 H61        -8.4457   -1.1967   60.8978 H       1  ZINC001342629575    0.1200
@<TRIPOS>BOND
     1     1     2    2
     2     1    33    1
     3     1    34    1
     4     2     3    1
     5     2    35    1
     6     3     4    1
     7     3    36    1
     8     3    37    1
     9     4     5    1
    10     4     6    1
    11     4    27    1
    12     6    22    1
    13     6     7    2
    14     7     8    1
    15     8     9    2
    16     9    10    1
    17     9    22    1
    18    10    14    1
    19    10    11    1
    20    11    12    1
    21    11    38    1
    22    11    39    1
    23    12    13    1
    24    12    40    1
    25    12    41    1
    26    13    14    1
    27    13    42    1
    28    13    43    1
    29    14    15    1
    30    14    16    1
    31    16    17    1
    32    16    21    1
    33    16    18    1
    34    18    19    1
    35    18    44    1
    36    18    45    1
    37    19    20    1
    38    19    46    1
    39    19    47    1
    40    20    21    1
    41    20    48    1
    42    20    49    1
    43    22    23    1
    44    23    24    1
    45    23    50    1
    46    23    51    1
    47    24    25    1
    48    24    52    1
    49    24    53    1
    50    25    26    1
    51    26    54    1
    52    26    55    1
    53    26    56    1
    54    27    32   ar
    55    27    28   ar
    56    28    29   ar
    57    28    57    1
    58    29    30   ar
    59    29    58    1
    60    30    31   ar
    61    30    59    1
    62    31    32   ar
    63    31    60    1
    64    32    61    1
@<TRIPOS>SUBSTRUCTURE
     1 ZINC001342629575        1 TEMP              0 ****  ****    0 ROOT


##########                                Name:    ZINC000171059239
##########                DOCK_Rotatable_Bonds:                   8
##########                         Heavy_Atoms:                  25
##########                    Molecular_Weight:              333.39
##########                DOCK_Rotatable_Bonds:                   8
##########                       Formal_Charge:         1.10269e-06
##########                     HBond_Acceptors:                   5
##########                        HBond_Donors:                   4
##########                         Heavy_Atoms:                  25
##########                          Grid_Score:          -29.640793
##########                     Grid_vdw_energy:          -29.503141
##########                      Grid_es_energy:           -0.137651
##########           Internal_energy_repulsive:            7.935239

@<TRIPOS>MOLECULE
ZINC000171059239
 44 46 1 0 0
SMALL
USER_CHARGES


@<TRIPOS>ATOM
      1 N1         -5.3786    3.0359   55.6778 N.am    1  ZINC000171059239   -0.8500
      2 C2         -4.1820    3.1567   55.0698 C.2     1  ZINC000171059239    0.5600
      3 O3         -3.1803    3.3464   55.7318 O.2     1  ZINC000171059239   -0.5400
      4 C4         -4.0876    3.0587   53.5975 C.ar    1  ZINC000171059239   -0.1400
      5 C5         -2.8610    3.2489   52.9597 C.ar    1  ZINC000171059239   -0.0900
      6 C6         -2.7797    3.1556   51.5855 C.ar    1  ZINC000171059239   -0.1200
      7 C7         -3.9108    2.8749   50.8402 C.ar    1  ZINC000171059239   -0.0800
      8 C8         -5.1303    2.6857   51.4664 C.ar    1  ZINC000171059239   -0.0900
      9 C9         -6.3572    2.3807   50.6464 C.3     1  ZINC000171059239   -0.0900
     10 C10        -6.9355    1.0310   51.0764 C.3     1  ZINC000171059239    0.1400
     11 N11        -8.2046    1.2443   51.7766 N.am    1  ZINC000171059239   -0.7400
     12 C12        -8.8250    0.2095   52.3771 C.2     1  ZINC000171059239    0.7000
     13 O13        -8.3308   -0.9008   52.3389 O.2     1  ZINC000171059239   -0.5700
     14 N14        -9.9934    0.4053   53.0199 N.am    1  ZINC000171059239   -0.6800
     15 C15       -10.6362   -0.6667   53.6420 C.ar    1  ZINC000171059239    0.1700
     16 C16       -10.8870   -0.6378   55.0303 C.ar    1  ZINC000171059239   -0.0600
     17 C17       -10.5012    0.4585   55.8173 C.ar    1  ZINC000171059239   -0.1100
     18 C18       -10.7596    0.4526   57.1542 C.ar    1  ZINC000171059239   -0.1100
     19 C19       -11.4024   -0.6278   57.7553 C.ar    1  ZINC000171059239   -0.1200
     20 C20       -11.7906   -1.7076   57.0233 C.ar    1  ZINC000171059239   -0.1000
     21 C21       -11.5410   -1.7367   55.6403 C.ar    1  ZINC000171059239   -0.0400
     22 C22       -11.9281   -2.8346   54.8535 C.ar    1  ZINC000171059239   -0.1200
     23 C23       -11.6739   -2.8357   53.5158 C.ar    1  ZINC000171059239   -0.0900
     24 C24       -11.0365   -1.7602   52.9047 C.ar    1  ZINC000171059239   -0.1200
     25 C25        -5.2240    2.7700   52.8400 C.ar    1  ZINC000171059239   -0.0500
     26 H26        -5.4408    3.1014   56.6436 H       1  ZINC000171059239    0.4100
     27 H27        -6.1784    2.8873   55.1493 H       1  ZINC000171059239    0.4000
     28 H28        -1.9774    3.4688   53.5405 H       1  ZINC000171059239    0.1300
     29 H29        -1.8311    3.3025   51.0906 H       1  ZINC000171059239    0.1300
     30 H30        -3.8419    2.8033   49.7648 H       1  ZINC000171059239    0.1300
     31 H31        -7.1018    3.1614   50.8023 H       1  ZINC000171059239    0.0800
     32 H32        -6.0881    2.3410   49.5908 H       1  ZINC000171059239    0.0800
     33 H33        -7.1060    0.4117   50.1958 H       1  ZINC000171059239    0.0700
     34 H34        -6.2327    0.5303   51.7423 H       1  ZINC000171059239    0.0700
     35 H35        -8.5982    2.1303   51.8081 H       1  ZINC000171059239    0.4000
     36 H36       -10.3876    1.2911   53.0503 H       1  ZINC000171059239    0.4100
     37 H37       -10.0016    1.3024   55.3649 H       1  ZINC000171059239    0.1200
     38 H38       -10.4618    1.2975   57.7574 H       1  ZINC000171059239    0.1200
     39 H39       -11.5951   -0.6082   58.8177 H       1  ZINC000171059239    0.1200
     40 H40       -12.2875   -2.5381   57.5028 H       1  ZINC000171059239    0.1300
     41 H41       -12.4267   -3.6772   55.3095 H       1  ZINC000171059239    0.1300
     42 H42       -11.9750   -3.6838   52.9187 H       1  ZINC000171059239    0.1300
     43 H43       -10.8469   -1.7857   51.8418 H       1  ZINC000171059239    0.1400
     44 H44        -6.1762    2.6219   53.3275 H       1  ZINC000171059239    0.1400
@<TRIPOS>BOND
     1     1     2   am
     2     1    26    1
     3     1    27    1
     4     2     3    2
     5     2     4    1
     6     4    25   ar
     7     4     5   ar
     8     5     6   ar
     9     5    28    1
    10     6     7   ar
    11     6    29    1
    12     7     8   ar
    13     7    30    1
    14     8     9    1
    15     8    25   ar
    16     9    10    1
    17     9    31    1
    18     9    32    1
    19    10    11    1
    20    10    33    1
    21    10    34    1
    22    11    12   am
    23    11    35    1
    24    12    13    2
    25    12    14   am
    26    14    15    1
    27    14    36    1
    28    15    24   ar
    29    15    16   ar
    30    16    21   ar
    31    16    17   ar
    32    17    18   ar
    33    17    37    1
    34    18    19   ar
    35    18    38    1
    36    19    20   ar
    37    19    39    1
    38    20    21   ar
    39    20    40    1
    40    21    22   ar
    41    22    23   ar
    42    22    41    1
    43    23    24   ar
    44    23    42    1
    45    24    43    1
    46    25    44    1
@<TRIPOS>SUBSTRUCTURE
     1 ZINC000171059239        1 TEMP              0 ****  ****    0 ROOT


##########                                Name:    ZINC000938043669
##########                DOCK_Rotatable_Bonds:                   7
##########                         Heavy_Atoms:                  27
##########                    Molecular_Weight:             372.439
##########                DOCK_Rotatable_Bonds:                   7
##########                       Formal_Charge:           0.0499999
##########                     HBond_Acceptors:                   6
##########                        HBond_Donors:                   1
##########                         Heavy_Atoms:                  27
##########                          Grid_Score:          -29.626598
##########                     Grid_vdw_energy:          -28.626841
##########                      Grid_es_energy:           -0.999757
##########           Internal_energy_repulsive:           14.516728

@<TRIPOS>MOLECULE
ZINC000938043669
 52 55 1 0 0
SMALL
USER_CHARGES


@<TRIPOS>ATOM
      1 O1         -4.9219    2.3963   67.7947 O.2     1  ZINC000938043669   -0.5000
      2 C2         -5.4290    2.4261   66.6933 C.2     1  ZINC000938043669    0.5300
      3 C3         -4.9628    3.4357   65.6763 C.3     1  ZINC000938043669    0.0500
      4 O4         -3.9295    2.8610   64.8737 O.3     1  ZINC000938043669   -0.2800
      5 C5         -3.3792    3.6535   63.9158 C.ar    1  ZINC000938043669    0.0900
      6 C6         -3.8195    4.9582   63.7566 C.ar    1  ZINC000938043669   -0.1800
      7 C7         -3.2582    5.7624   62.7825 C.ar    1  ZINC000938043669   -0.0900
      8 C8         -2.2583    5.2675   61.9665 C.ar    1  ZINC000938043669   -0.1300
      9 C9         -1.8164    3.9662   62.1216 C.ar    1  ZINC000938043669   -0.1100
     10 C10        -2.3702    3.1589   63.0983 C.ar    1  ZINC000938043669    0.0800
     11 F11        -1.9387    1.8878   63.2501 F       1  ZINC000938043669   -0.1300
     12 N12        -6.4055    1.5526   66.3771 N.am    1  ZINC000938043669   -0.6200
     13 C13        -6.9527    0.5194   67.2684 C.3     1  ZINC000938043669    0.1000
     14 C14        -8.0628   -0.2167   66.4893 C.3     1  ZINC000938043669   -0.1400
     15 C15        -8.4655    0.8135   65.4013 C.3     1  ZINC000938043669    0.1300
     16 H16        -9.1711    1.5440   65.7970 H       1  ZINC000938043669    0.1100
     17 N17        -9.0155    0.1427   64.2207 N.am    1  ZINC000938043669   -0.7200
     18 C18        -9.7753    0.8320   63.3467 C.2     1  ZINC000938043669    0.5200
     19 O19       -10.0026    2.0081   63.5367 O.2     1  ZINC000938043669   -0.5200
     20 C20       -10.3425    0.1415   62.1333 C.3     1  ZINC000938043669   -0.1000
     21 H21       -11.0814   -0.5957   62.4472 H       1  ZINC000938043669    0.1000
     22 C22        -9.2150   -0.5591   61.3718 C.3     1  ZINC000938043669   -0.1100
     23 C23        -9.1270    0.0075   59.9490 C.3     1  ZINC000938043669   -0.0600
     24 H24        -8.2961   -0.4416   59.4048 H       1  ZINC000938043669    0.0800
     25 C25        -8.9492    1.5147   60.0575 C.2     1  ZINC000938043669   -0.1800
     26 C26        -9.9298    2.1241   60.7196 C.2     1  ZINC000938043669   -0.1300
     27 C27       -11.0106    1.1782   61.2209 C.3     1  ZINC000938043669   -0.0400
     28 H28       -11.7899    1.7272   61.7495 H       1  ZINC000938043669    0.0900
     29 C29       -11.5910    0.4462   60.0031 C.3     1  ZINC000938043669   -0.1200
     30 C30       -10.4578   -0.2701   59.2361 C.3     1  ZINC000938043669   -0.1100
     31 C31        -7.1061    1.4792   65.0820 C.3     1  ZINC000938043669    0.1000
     32 H32        -5.7997    3.7233   65.0397 H       1  ZINC000938043669    0.1000
     33 H33        -4.5769    4.3166   66.1892 H       1  ZINC000938043669    0.1000
     34 H34        -4.6008    5.3461   64.3933 H       1  ZINC000938043669    0.1400
     35 H35        -3.6017    6.7788   62.6585 H       1  ZINC000938043669    0.1300
     36 H36        -1.8217    5.8981   61.2062 H       1  ZINC000938043669    0.1400
     37 H37        -1.0353    3.5818   61.4825 H       1  ZINC000938043669    0.1500
     38 H38        -6.1674   -0.1832   67.5475 H       1  ZINC000938043669    0.0800
     39 H39        -7.3717    0.9839   68.1610 H       1  ZINC000938043669    0.0800
     40 H40        -7.6749   -1.1276   66.0331 H       1  ZINC000938043669    0.0900
     41 H41        -8.9079   -0.4401   67.1406 H       1  ZINC000938043669    0.1000
     42 H42        -8.8326   -0.7977   64.0680 H       1  ZINC000938043669    0.4000
     43 H43        -8.2697   -0.3922   61.8882 H       1  ZINC000938043669    0.0700
     44 H44        -9.4187   -1.6289   61.3247 H       1  ZINC000938043669    0.0800
     45 H45        -8.1055    2.0413   59.6363 H       1  ZINC000938043669    0.1200
     46 H46        -9.9554    3.1909   60.8861 H       1  ZINC000938043669    0.1200
     47 H47       -12.3182   -0.2940   60.3368 H       1  ZINC000938043669    0.0700
     48 H48       -12.0805    1.1655   59.3464 H       1  ZINC000938043669    0.0700
     49 H49       -10.4093    0.1145   58.2174 H       1  ZINC000938043669    0.0700
     50 H50       -10.6572   -1.3413   59.2105 H       1  ZINC000938043669    0.0700
     51 H51        -7.2596    2.4777   64.6727 H       1  ZINC000938043669    0.0900
     52 H52        -6.5378    0.8651   64.3835 H       1  ZINC000938043669    0.0700
@<TRIPOS>BOND
     1     1     2    2
     2     2     3    1
     3     2    12   am
     4     3     4    1
     5     3    32    1
     6     3    33    1
     7     4     5    1
     8     5    10   ar
     9     5     6   ar
    10     6     7   ar
    11     6    34    1
    12     7     8   ar
    13     7    35    1
    14     8     9   ar
    15     8    36    1
    16     9    10   ar
    17     9    37    1
    18    10    11    1
    19    12    31    1
    20    12    13    1
    21    13    14    1
    22    13    38    1
    23    13    39    1
    24    14    15    1
    25    14    40    1
    26    14    41    1
    27    15    16    1
    28    15    17    1
    29    15    31    1
    30    17    18   am
    31    17    42    1
    32    18    19    2
    33    18    20    1
    34    20    21    1
    35    20    27    1
    36    20    22    1
    37    22    23    1
    38    22    43    1
    39    22    44    1
    40    23    24    1
    41    23    30    1
    42    23    25    1
    43    25    26    2
    44    25    45    1
    45    26    27    1
    46    26    46    1
    47    27    28    1
    48    27    29    1
    49    29    30    1
    50    29    47    1
    51    29    48    1
    52    30    49    1
    53    30    50    1
    54    31    51    1
    55    31    52    1
@<TRIPOS>SUBSTRUCTURE
     1 ZINC000938043669        1 TEMP              0 ****  ****    0 ROOT


##########                                Name:    ZINC000494558165
##########                DOCK_Rotatable_Bonds:                  11
##########                         Heavy_Atoms:                  28
##########                    Molecular_Weight:             409.506
##########                DOCK_Rotatable_Bonds:                  11
##########                       Formal_Charge:        -6.55651e-07
##########                     HBond_Acceptors:                   9
##########                        HBond_Donors:                   3
##########                         Heavy_Atoms:                  28
##########                          Grid_Score:          -29.621471
##########                     Grid_vdw_energy:          -28.889769
##########                      Grid_es_energy:           -0.731703
##########           Internal_energy_repulsive:           32.167011

@<TRIPOS>MOLECULE
ZINC000494558165
 55 57 1 0 0
SMALL
USER_CHARGES


@<TRIPOS>ATOM
      1 O1        -10.7077   -1.8520   52.3352 O.2     1  ZINC000494558165   -0.4400
      2 C2        -10.6929   -1.4098   53.4639 C.2     1  ZINC000494558165    0.5100
      3 C3        -11.4657   -2.1042   54.5555 C.3     1  ZINC000494558165    0.0300
      4 N4        -12.7669   -1.4450   54.7296 N.3     1  ZINC000494558165   -0.5000
      5 C5        -13.4850   -1.3516   53.4516 C.3     1  ZINC000494558165    0.0500
      6 C6        -13.4580    0.0957   52.9561 C.3     1  ZINC000494558165   -0.1100
      7 C7        -14.4709    0.2655   51.8220 C.3     1  ZINC000494558165    0.0800
      8 O8        -14.2771    1.5355   51.1964 O.3     1  ZINC000494558165   -0.5700
      9 C9        -13.5775   -2.1386   55.7396 C.3     1  ZINC000494558165    0.1200
     10 H10       -13.9418   -3.0871   55.3448 H       1  ZINC000494558165    0.1000
     11 C11       -14.7613   -1.2508   56.1782 C.3     1  ZINC000494558165   -0.1200
     12 C12       -14.1856   -0.5137   57.4060 C.3     1  ZINC000494558165   -0.0900
     13 C13       -13.1162   -1.4336   57.9548 C.ar    1  ZINC000494558165   -0.0900
     14 C14       -12.4977   -1.4520   59.1934 C.ar    1  ZINC000494558165   -0.1100
     15 C15       -11.5330   -2.4001   59.4747 C.ar    1  ZINC000494558165   -0.1100
     16 C16       -11.1837   -3.3336   58.5173 C.ar    1  ZINC000494558165   -0.1200
     17 C17       -11.7997   -3.3169   57.2809 C.ar    1  ZINC000494558165   -0.1000
     18 C18       -12.7658   -2.3698   56.9962 C.ar    1  ZINC000494558165   -0.1300
     19 N19        -9.9805   -0.3004   53.7437 N.am    1  ZINC000494558165   -0.6900
     20 C20        -9.2893    0.3206   52.7674 C.2     1  ZINC000494558165    0.7000
     21 O21        -9.3095   -0.1190   51.6345 O.2     1  ZINC000494558165   -0.5200
     22 N22        -8.5756    1.4291   53.0475 N.am    1  ZINC000494558165   -0.7300
     23 C23        -7.8257    2.1052   51.9860 C.3     1  ZINC000494558165    0.1700
     24 H24        -8.4804    2.2871   51.1337 H       1  ZINC000494558165    0.1200
     25 C25        -7.2772    3.4433   52.5118 C.3     1  ZINC000494558165   -0.1400
     26 C26        -6.2375    3.9357   51.4722 C.3     1  ZINC000494558165   -0.5800
     27 S27        -5.3259    2.3996   51.0615 S.o2    1  ZINC000494558165    2.4000
     28 O28        -5.1278    2.3309   49.6560 O.2     1  ZINC000494558165   -0.9300
     29 O29        -4.2178    2.2604   51.9400 O.2     1  ZINC000494558165   -0.9300
     30 C30        -6.6382    1.2247   51.5488 C.3     1  ZINC000494558165   -0.6200
     31 H31       -11.6209   -3.1482   54.2832 H       1  ZINC000494558165    0.0700
     32 H32       -10.9040   -2.0517   55.4882 H       1  ZINC000494558165    0.1200
     33 H33       -13.0036   -1.9963   52.7164 H       1  ZINC000494558165    0.0900
     34 H34       -14.5184   -1.6685   53.5915 H       1  ZINC000494558165    0.0400
     35 H35       -13.7155    0.7656   53.7766 H       1  ZINC000494558165    0.0700
     36 H36       -12.4596    0.3360   52.5905 H       1  ZINC000494558165    0.0800
     37 H37       -14.3296   -0.5270   51.0870 H       1  ZINC000494558165    0.0500
     38 H38       -15.4816    0.2101   52.2263 H       1  ZINC000494558165    0.0400
     39 H39       -14.3352    1.5117   50.2315 H       1  ZINC000494558165    0.3800
     40 H40       -15.0279   -0.5444   55.3921 H       1  ZINC000494558165    0.0900
     41 H41       -15.6196   -1.8609   56.4598 H       1  ZINC000494558165    0.0800
     42 H42       -13.7479    0.4380   57.1049 H       1  ZINC000494558165    0.0800
     43 H43       -14.9653   -0.3534   58.1507 H       1  ZINC000494558165    0.0800
     44 H44       -12.7699   -0.7226   59.9419 H       1  ZINC000494558165    0.1200
     45 H45       -11.0527   -2.4119   60.4419 H       1  ZINC000494558165    0.1300
     46 H46       -10.4294   -4.0753   58.7354 H       1  ZINC000494558165    0.1200
     47 H47       -11.5259   -4.0465   56.5332 H       1  ZINC000494558165    0.1200
     48 H48        -9.9653    0.0511   54.6476 H       1  ZINC000494558165    0.4100
     49 H49        -8.5586    1.7792   53.9519 H       1  ZINC000494558165    0.4000
     50 H50        -8.0860    4.1683   52.6031 H       1  ZINC000494558165    0.1100
     51 H51        -6.7968    3.2955   53.4790 H       1  ZINC000494558165    0.0900
     52 H52        -6.7342    4.3386   50.5894 H       1  ZINC000494558165    0.1400
     53 H53        -5.5698    4.6756   51.9134 H       1  ZINC000494558165    0.1400
     54 H54        -6.3007    0.6030   52.3780 H       1  ZINC000494558165    0.1500
     55 H55        -6.9238    0.6031   50.7003 H       1  ZINC000494558165    0.1500
@<TRIPOS>BOND
     1     1     2    2
     2     2     3    1
     3     2    19   am
     4     3     4    1
     5     3    31    1
     6     3    32    1
     7     4     5    1
     8     4     9    1
     9     5     6    1
    10     5    33    1
    11     5    34    1
    12     6     7    1
    13     6    35    1
    14     6    36    1
    15     7     8    1
    16     7    37    1
    17     7    38    1
    18     8    39    1
    19     9    10    1
    20     9    18    1
    21     9    11    1
    22    11    12    1
    23    11    40    1
    24    11    41    1
    25    12    13    1
    26    12    42    1
    27    12    43    1
    28    13    18   ar
    29    13    14   ar
    30    14    15   ar
    31    14    44    1
    32    15    16   ar
    33    15    45    1
    34    16    17   ar
    35    16    46    1
    36    17    18   ar
    37    17    47    1
    38    19    20   am
    39    19    48    1
    40    20    21    2
    41    20    22   am
    42    22    23    1
    43    22    49    1
    44    23    24    1
    45    23    30    1
    46    23    25    1
    47    25    26    1
    48    25    50    1
    49    25    51    1
    50    26    27    1
    51    26    52    1
    52    26    53    1
    53    27    28    2
    54    27    29    2
    55    27    30    1
    56    30    54    1
    57    30    55    1
@<TRIPOS>SUBSTRUCTURE
     1 ZINC000494558165        1 TEMP              0 ****  ****    0 ROOT


##########                                Name:    ZINC000655982608
##########                DOCK_Rotatable_Bonds:                   5
##########                         Heavy_Atoms:                  29
##########                    Molecular_Weight:             388.469
##########                DOCK_Rotatable_Bonds:                   5
##########                       Formal_Charge:          -0.0200006
##########                     HBond_Acceptors:                   6
##########                        HBond_Donors:                   0
##########                         Heavy_Atoms:                  29
##########                          Grid_Score:          -29.604137
##########                     Grid_vdw_energy:          -29.687534
##########                      Grid_es_energy:            0.083396
##########           Internal_energy_repulsive:           26.401175

@<TRIPOS>MOLECULE
ZINC000655982608
 53 57 1 0 0
SMALL
USER_CHARGES


@<TRIPOS>ATOM
      1 C1          1.9301   -0.3224   50.6636 C.3     1  ZINC000655982608   -0.1900
      2 C2          1.4351    1.0668   50.2559 C.3     1  ZINC000655982608    0.0800
      3 H3          0.7033    0.9709   49.4538 H       1  ZINC000655982608    0.1000
      4 C4          0.7849    1.7502   51.4605 C.3     1  ZINC000655982608   -0.0300
      5 C5         -0.3474    2.6265   50.9902 C.2     1  ZINC000655982608    0.2000
      6 N6         -1.6267    2.4286   51.1994 N.2     1  ZINC000655982608   -0.4800
      7 C7         -2.2546    3.4564   50.6008 C.2     1  ZINC000655982608    0.1700
      8 C8         -3.7430    3.6885   50.5564 C.3     1  ZINC000655982608   -0.0100
      9 H9         -3.9716    4.6581   50.1141 H       1  ZINC000655982608    0.1300
     10 C10        -4.4581    2.5495   49.7933 C.3     1  ZINC000655982608   -0.1400
     11 C11        -5.7523    2.3507   50.5510 C.2     1  ZINC000655982608    0.5200
     12 O12        -6.7197    1.7533   50.1288 O.2     1  ZINC000655982608   -0.5000
     13 N13        -5.6738    2.9321   51.7605 N.am    1  ZINC000655982608   -0.5600
     14 C14        -6.7079    2.9359   52.7031 C.ar    1  ZINC000655982608    0.1600
     15 C15        -6.4136    2.8772   54.0591 C.ar    1  ZINC000655982608   -0.1600
     16 C16        -7.4366    2.8811   54.9870 C.ar    1  ZINC000655982608   -0.0900
     17 C17        -8.7526    2.9427   54.5671 C.ar    1  ZINC000655982608   -0.1400
     18 C18        -9.0491    3.0007   53.2178 C.ar    1  ZINC000655982608   -0.0900
     19 C19        -8.0304    3.0039   52.2850 C.ar    1  ZINC000655982608   -0.1600
     20 C20        -4.3642    3.5633   51.9653 C.3     1  ZINC000655982608    0.1100
     21 N21        -1.3421    4.2127   50.0679 N.2     1  ZINC000655982608   -0.3700
     22 O22        -0.2393    3.7566   50.2851 O.3     1  ZINC000655982608    0.0900
     23 N23         2.5704    1.8736   49.7890 N.3     1  ZINC000655982608   -0.4700
     24 C24         3.5521    2.0857   50.8749 C.3     1  ZINC000655982608    0.0300
     25 C25         4.8907    2.1790   50.1071 C.3     1  ZINC000655982608   -0.0800
     26 C26         4.6095    1.3909   48.8432 C.ar    1  ZINC000655982608   -0.1400
     27 C27         5.4523    0.8572   47.8915 C.ar    1  ZINC000655982608   -0.0800
     28 C28         4.9306    0.1633   46.8142 C.ar    1  ZINC000655982608   -0.1400
     29 C29         3.5624    0.0055   46.6937 C.ar    1  ZINC000655982608   -0.0900
     30 C30         2.7146    0.5395   47.6421 C.ar    1  ZINC000655982608   -0.1400
     31 C31         3.2321    1.2425   48.7285 C.ar    1  ZINC000655982608    0.1000
     32 H32         1.0765   -0.9561   50.9039 H       1  ZINC000655982608    0.0700
     33 H33         2.4904   -0.7646   49.8398 H       1  ZINC000655982608    0.0700
     34 H34         2.5759   -0.2360   51.5373 H       1  ZINC000655982608    0.0700
     35 H35         0.3991    0.9932   52.1433 H       1  ZINC000655982608    0.1200
     36 H36         1.5265    2.3604   51.9761 H       1  ZINC000655982608    0.1100
     37 H37        -4.6603    2.8479   48.7645 H       1  ZINC000655982608    0.1200
     38 H38        -3.8586    1.6395   49.8167 H       1  ZINC000655982608    0.1200
     39 H39        -5.3860    2.8283   54.3875 H       1  ZINC000655982608    0.1200
     40 H40        -7.2084    2.8355   56.0416 H       1  ZINC000655982608    0.1300
     41 H41        -9.5507    2.9453   55.2948 H       1  ZINC000655982608    0.1200
     42 H42       -10.0779    3.0482   52.8930 H       1  ZINC000655982608    0.1300
     43 H43        -8.2626    3.0492   51.2312 H       1  ZINC000655982608    0.1500
     44 H44        -3.7378    2.9353   52.5987 H       1  ZINC000655982608    0.0900
     45 H45        -4.4867    4.5492   52.4136 H       1  ZINC000655982608    0.1000
     46 H46         3.3458    3.0147   51.4066 H       1  ZINC000655982608    0.1000
     47 H47         3.5582    1.2392   51.5614 H       1  ZINC000655982608    0.0700
     48 H48         5.1286    3.2160   49.8705 H       1  ZINC000655982608    0.0900
     49 H49         5.6962    1.7177   50.6784 H       1  ZINC000655982608    0.0800
     50 H50         6.5208    0.9812   47.9869 H       1  ZINC000655982608    0.1200
     51 H51         5.5911   -0.2541   46.0686 H       1  ZINC000655982608    0.1200
     52 H52         3.1556   -0.5377   45.8536 H       1  ZINC000655982608    0.1300
     53 H53         1.6468    0.4131   47.5420 H       1  ZINC000655982608    0.1200
@<TRIPOS>BOND
     1     1     2    1
     2     1    32    1
     3     1    33    1
     4     1    34    1
     5     2     3    1
     6     2     4    1
     7     2    23    1
     8     4     5    1
     9     4    35    1
    10     4    36    1
    11     5    22    1
    12     5     6    2
    13     6     7    1
    14     7     8    1
    15     7    21    2
    16     8     9    1
    17     8    20    1
    18     8    10    1
    19    10    11    1
    20    10    37    1
    21    10    38    1
    22    11    12    2
    23    11    13   am
    24    13    14    1
    25    13    20    1
    26    14    19   ar
    27    14    15   ar
    28    15    16   ar
    29    15    39    1
    30    16    17   ar
    31    16    40    1
    32    17    18   ar
    33    17    41    1
    34    18    19   ar
    35    18    42    1
    36    19    43    1
    37    20    44    1
    38    20    45    1
    39    21    22    1
    40    23    31    1
    41    23    24    1
    42    24    25    1
    43    24    46    1
    44    24    47    1
    45    25    26    1
    46    25    48    1
    47    25    49    1
    48    26    31   ar
    49    26    27   ar
    50    27    28   ar
    51    27    50    1
    52    28    29   ar
    53    28    51    1
    54    29    30   ar
    55    29    52    1
    56    30    31   ar
    57    30    53    1
@<TRIPOS>SUBSTRUCTURE
     1 ZINC000655982608        1 TEMP              0 ****  ****    0 ROOT


##########                                Name:    ZINC000192150625
##########                DOCK_Rotatable_Bonds:                   5
##########                         Heavy_Atoms:                  28
##########                    Molecular_Weight:             377.443
##########                DOCK_Rotatable_Bonds:                   5
##########                       Formal_Charge:           0.0199997
##########                     HBond_Acceptors:                   6
##########                        HBond_Donors:                   1
##########                         Heavy_Atoms:                  28
##########                          Grid_Score:          -29.602327
##########                     Grid_vdw_energy:          -30.473265
##########                      Grid_es_energy:            0.870937
##########           Internal_energy_repulsive:           23.211193

@<TRIPOS>MOLECULE
ZINC000192150625
 51 54 1 0 0
SMALL
USER_CHARGES


@<TRIPOS>ATOM
      1 C1          4.5660    0.4439   51.8616 C.3     1  ZINC000192150625   -0.0800
      2 C2          3.4126    1.3981   52.0358 C.2     1  ZINC000192150625    0.0400
      3 C3          2.3312    1.4460   51.2462 C.2     1  ZINC000192150625   -0.1800
      4 C4          2.0469    0.5786   50.0471 C.3     1  ZINC000192150625   -0.0800
      5 C5          1.4786    2.5134   51.7840 C.ar    1  ZINC000192150625   -0.1000
      6 C6          0.2437    3.0474   51.4219 C.ar    1  ZINC000192150625   -0.0700
      7 C7         -0.2971    4.0821   52.1657 C.ar    1  ZINC000192150625    0.1200
      8 N8         -1.5365    4.6243   51.8099 N.am    1  ZINC000192150625   -0.6400
      9 C9         -2.6617    4.1808   52.4046 C.2     1  ZINC000192150625    0.5100
     10 O10        -2.5997    3.3110   53.2489 O.2     1  ZINC000192150625   -0.4900
     11 C11        -3.9850    4.7597   52.0247 C.2     1  ZINC000192150625    0.5100
     12 O12        -4.2412    5.9153   52.2925 O.2     1  ZINC000192150625   -0.5200
     13 N13        -4.8947    3.9987   51.3845 N.am    1  ZINC000192150625   -0.5800
     14 C14        -4.6015    2.5963   51.0589 C.3     1  ZINC000192150625    0.0500
     15 C15        -5.7252    1.7158   51.6144 C.3     1  ZINC000192150625   -0.1200
     16 C16        -7.0703    2.2165   51.0831 C.3     1  ZINC000192150625   -0.0500
     17 C17        -8.1751    1.3318   51.6004 C.ar    1  ZINC000192150625   -0.0300
     18 C18        -7.9403   -0.0050   51.8833 C.ar    1  ZINC000192150625   -0.1700
     19 C19        -8.9780   -0.7858   52.3564 C.ar    1  ZINC000192150625    0.1000
     20 N20       -10.1792   -0.2729   52.5383 N.ar    1  ZINC000192150625   -0.4900
     21 C21       -10.4388    0.9940   52.2799 C.ar    1  ZINC000192150625    0.1000
     22 C22        -9.4493    1.8367   51.8102 C.ar    1  ZINC000192150625   -0.1700
     23 C23        -7.3042    3.6532   51.5552 C.3     1  ZINC000192150625   -0.1200
     24 C24        -6.2008    4.5540   51.0043 C.3     1  ZINC000192150625    0.1100
     25 C25         0.3910    4.5841   53.2685 C.ar    1  ZINC000192150625   -0.1100
     26 C26         1.6121    4.0604   53.6316 C.ar    1  ZINC000192150625   -0.0800
     27 C27         2.1701    3.0217   52.8967 C.ar    1  ZINC000192150625    0.0500
     28 O28         3.3171    2.3202   53.0093 O.3     1  ZINC000192150625   -0.1900
     29 H29         5.3043    0.6198   52.6441 H       1  ZINC000192150625    0.0800
     30 H30         4.2027   -0.5814   51.9287 H       1  ZINC000192150625    0.0900
     31 H31         5.0255    0.6035   50.8862 H       1  ZINC000192150625    0.0900
     32 H32         1.5061   -0.3132   50.3639 H       1  ZINC000192150625    0.0700
     33 H33         1.4422    1.1351   49.3312 H       1  ZINC000192150625    0.0700
     34 H34         2.9870    0.2863   49.5791 H       1  ZINC000192150625    0.0700
     35 H35        -0.2877    2.6570   50.5665 H       1  ZINC000192150625    0.1400
     36 H36        -1.5861    5.3194   51.1352 H       1  ZINC000192150625    0.4300
     37 H37        -4.5445    2.4766   49.9769 H       1  ZINC000192150625    0.0700
     38 H38        -3.6529    2.3068   51.5110 H       1  ZINC000192150625    0.1600
     39 H39        -5.5698    0.6845   51.2975 H       1  ZINC000192150625    0.0800
     40 H40        -5.7225    1.7664   52.7033 H       1  ZINC000192150625    0.0700
     41 H41        -7.0631    2.1890   49.9935 H       1  ZINC000192150625    0.0900
     42 H42        -6.9589   -0.4310   51.7357 H       1  ZINC000192150625    0.1300
     43 H43        -8.8033   -1.8280   52.5791 H       1  ZINC000192150625    0.1600
     44 H44       -11.4351    1.3783   52.4411 H       1  ZINC000192150625    0.1600
     45 H45        -9.6679    2.8734   51.6007 H       1  ZINC000192150625    0.1300
     46 H46        -8.2728    4.0011   51.1959 H       1  ZINC000192150625    0.0800
     47 H47        -7.2867    3.6857   52.6446 H       1  ZINC000192150625    0.0700
     48 H48        -6.3072    5.5569   51.4178 H       1  ZINC000192150625    0.1000
     49 H49        -6.2713    4.5953   49.9174 H       1  ZINC000192150625    0.0800
     50 H50        -0.0370    5.3918   53.8438 H       1  ZINC000192150625    0.1400
     51 H51         2.1364    4.4574   54.4882 H       1  ZINC000192150625    0.1400
@<TRIPOS>BOND
     1     1     2    1
     2     1    29    1
     3     1    30    1
     4     1    31    1
     5     2    28    1
     6     2     3    2
     7     3     4    1
     8     3     5    1
     9     4    32    1
    10     4    33    1
    11     4    34    1
    12     5    27   ar
    13     5     6   ar
    14     6     7   ar
    15     6    35    1
    16     7     8    1
    17     7    25   ar
    18     8     9   am
    19     8    36    1
    20     9    10    2
    21     9    11    1
    22    11    12    2
    23    11    13   am
    24    13    24    1
    25    13    14    1
    26    14    15    1
    27    14    37    1
    28    14    38    1
    29    15    16    1
    30    15    39    1
    31    15    40    1
    32    16    17    1
    33    16    23    1
    34    16    41    1
    35    17    22   ar
    36    17    18   ar
    37    18    19   ar
    38    18    42    1
    39    19    20   ar
    40    19    43    1
    41    20    21   ar
    42    21    22   ar
    43    21    44    1
    44    22    45    1
    45    23    24    1
    46    23    46    1
    47    23    47    1
    48    24    48    1
    49    24    49    1
    50    25    26   ar
    51    25    50    1
    52    26    27   ar
    53    26    51    1
    54    27    28    1
@<TRIPOS>SUBSTRUCTURE
     1 ZINC000192150625        1 TEMP              0 ****  ****    0 ROOT


##########                                Name:    ZINC000864730443
##########                DOCK_Rotatable_Bonds:                  10
##########                         Heavy_Atoms:                  25
##########                    Molecular_Weight:             356.462
##########                DOCK_Rotatable_Bonds:                  10
##########                       Formal_Charge:           0.0299988
##########                     HBond_Acceptors:                   7
##########                        HBond_Donors:                   2
##########                         Heavy_Atoms:                  25
##########                          Grid_Score:          -29.596272
##########                     Grid_vdw_energy:          -27.372658
##########                      Grid_es_energy:           -2.223614
##########           Internal_energy_repulsive:           16.527132

@<TRIPOS>MOLECULE
ZINC000864730443
 57 58 1 0 0
SMALL
USER_CHARGES


@<TRIPOS>ATOM
      1 C1         -0.8031    4.3738   55.5116 C.3     1  ZINC000864730443   -0.1800
      2 C2         -0.3854    3.3130   56.5320 C.3     1  ZINC000864730443    0.1400
      3 C3          0.2686    3.9933   57.7363 C.3     1  ZINC000864730443   -0.1800
      4 C4         -1.6195    2.5354   56.9936 C.3     1  ZINC000864730443   -0.1400
      5 O5          0.5616    2.3986   55.9193 O.3     1  ZINC000864730443   -0.3600
      6 C6          1.4082    2.9149   55.0086 C.2     1  ZINC000864730443    0.6500
      7 O7          2.3437    3.6013   55.3694 O.2     1  ZINC000864730443   -0.5700
      8 N8          1.2181    2.6703   53.6970 N.am    1  ZINC000864730443   -0.7100
      9 C9          2.1404    3.2307   52.7061 C.3     1  ZINC000864730443    0.1500
     10 C10         1.7291    2.7673   51.3072 C.3     1  ZINC000864730443   -0.1300
     11 C11         0.4633    3.4733   50.8948 C.2     1  ZINC000864730443    0.5300
     12 O12         0.5164    4.5943   50.4349 O.2     1  ZINC000864730443   -0.5300
     13 N13        -0.7279    2.8590   51.0370 N.am    1  ZINC000864730443   -0.7200
     14 C14        -1.9585    3.5453   50.6360 C.3     1  ZINC000864730443    0.1200
     15 C15        -3.1480    2.5973   50.8007 C.3     1  ZINC000864730443   -0.1300
     16 C16        -4.4340    3.3159   50.3874 C.3     1  ZINC000864730443    0.0800
     17 H17        -4.3872    3.5991   49.3359 H       1  ZINC000864730443    0.0800
     18 C18        -5.6637    2.4093   50.6461 C.3     1  ZINC000864730443   -0.1500
     19 C19        -6.7866    3.4716   50.7966 C.3     1  ZINC000864730443   -0.1600
     20 C20        -6.0412    4.6428   51.4722 C.3     1  ZINC000864730443    0.0500
     21 O21        -4.6420    4.4767   51.2075 O.3     1  ZINC000864730443   -0.3800
     22 C22         2.8463    3.0929   50.3111 C.3     1  ZINC000864730443   -0.1000
     23 C23         2.4571    2.5553   48.9306 C.3     1  ZINC000864730443   -0.1600
     24 C24         2.1909    1.0512   49.0338 C.3     1  ZINC000864730443    0.0600
     25 O25         1.1637    0.8157   49.9988 O.3     1  ZINC000864730443   -0.3700
     26 C26         1.4911    1.2551   51.3187 C.3     1  ZINC000864730443    0.0800
     27 H27         0.0761    4.9278   55.1829 H       1  ZINC000864730443    0.0900
     28 H28        -1.2691    3.8892   54.6537 H       1  ZINC000864730443    0.0600
     29 H29        -1.5140    5.0602   55.9716 H       1  ZINC000864730443    0.0700
     30 H30        -0.4422    4.6797   58.1962 H       1  ZINC000864730443    0.0700
     31 H31         0.5662    3.2375   58.4632 H       1  ZINC000864730443    0.0600
     32 H32         1.1479    4.5472   57.4074 H       1  ZINC000864730443    0.0900
     33 H33        -2.0856    2.0507   56.1356 H       1  ZINC000864730443    0.0700
     34 H34        -1.3220    1.7796   57.7205 H       1  ZINC000864730443    0.0700
     35 H35        -2.3304    3.2219   57.4535 H       1  ZINC000864730443    0.0800
     36 H36         0.4706    2.1233   53.4089 H       1  ZINC000864730443    0.4100
     37 H37         2.1066    4.3191   52.7530 H       1  ZINC000864730443    0.0900
     38 H38         3.1534    2.8891   52.9188 H       1  ZINC000864730443    0.0800
     39 H39        -0.7704    1.9624   51.4047 H       1  ZINC000864730443    0.4000
     40 H40        -2.1050    4.4245   51.2635 H       1  ZINC000864730443    0.0700
     41 H41        -1.8801    3.8523   49.5930 H       1  ZINC000864730443    0.0700
     42 H42        -3.0034    1.7200   50.1701 H       1  ZINC000864730443    0.0800
     43 H43        -3.2239    2.2871   51.8428 H       1  ZINC000864730443    0.0800
     44 H44        -5.8541    1.7539   49.7963 H       1  ZINC000864730443    0.0900
     45 H45        -5.5415    1.8341   51.5639 H       1  ZINC000864730443    0.0800
     46 H46        -7.1729    3.7685   49.8216 H       1  ZINC000864730443    0.0800
     47 H47        -7.5878    3.1012   51.4362 H       1  ZINC000864730443    0.0800
     48 H48        -6.3852    5.5894   51.0554 H       1  ZINC000864730443    0.0700
     49 H49        -6.2202    4.6239   52.5472 H       1  ZINC000864730443    0.0700
     50 H50         2.9828    4.1730   50.2566 H       1  ZINC000864730443    0.0800
     51 H51         3.7741    2.6229   50.6372 H       1  ZINC000864730443    0.0800
     52 H52         1.5566    3.0617   48.5831 H       1  ZINC000864730443    0.0900
     53 H53         3.2707    2.7339   48.2275 H       1  ZINC000864730443    0.0800
     54 H54         1.8721    0.6711   48.0633 H       1  ZINC000864730443    0.1000
     55 H55         3.1034    0.5410   49.3423 H       1  ZINC000864730443    0.0500
     56 H56         2.3944    0.7474   51.6570 H       1  ZINC000864730443    0.0700
     57 H57         0.6681    1.0217   51.9941 H       1  ZINC000864730443    0.1000
@<TRIPOS>BOND
     1     1     2    1
     2     1    27    1
     3     1    28    1
     4     1    29    1
     5     2     3    1
     6     2     4    1
     7     2     5    1
     8     3    30    1
     9     3    31    1
    10     3    32    1
    11     4    33    1
    12     4    34    1
    13     4    35    1
    14     5     6    1
    15     6     7    2
    16     6     8   am
    17     8     9    1
    18     8    36    1
    19     9    10    1
    20     9    37    1
    21     9    38    1
    22    10    26    1
    23    10    11    1
    24    10    22    1
    25    11    12    2
    26    11    13   am
    27    13    14    1
    28    13    39    1
    29    14    15    1
    30    14    40    1
    31    14    41    1
    32    15    16    1
    33    15    42    1
    34    15    43    1
    35    16    17    1
    36    16    21    1
    37    16    18    1
    38    18    19    1
    39    18    44    1
    40    18    45    1
    41    19    20    1
    42    19    46    1
    43    19    47    1
    44    20    21    1
    45    20    48    1
    46    20    49    1
    47    22    23    1
    48    22    50    1
    49    22    51    1
    50    23    24    1
    51    23    52    1
    52    23    53    1
    53    24    25    1
    54    24    54    1
    55    24    55    1
    56    25    26    1
    57    26    56    1
    58    26    57    1
@<TRIPOS>SUBSTRUCTURE
     1 ZINC000864730443        1 TEMP              0 ****  ****    0 ROOT


##########                                Name:    ZINC001327099466
##########                DOCK_Rotatable_Bonds:                   7
##########                         Heavy_Atoms:                  27
##########                    Molecular_Weight:             374.483
##########                DOCK_Rotatable_Bonds:                   7
##########                       Formal_Charge:           0.0199998
##########                     HBond_Acceptors:                   7
##########                        HBond_Donors:                   1
##########                         Heavy_Atoms:                  27
##########                          Grid_Score:          -29.583147
##########                     Grid_vdw_energy:          -29.705942
##########                      Grid_es_energy:            0.122795
##########           Internal_energy_repulsive:           11.388493

@<TRIPOS>MOLECULE
ZINC001327099466
 57 60 1 0 0
SMALL
USER_CHARGES


@<TRIPOS>ATOM
      1 O1         -3.0567    4.2547   56.1909 O.2     1  ZINC001327099466   -0.4800
      2 C2         -3.5580    3.1703   55.9764 C.2     1  ZINC001327099466    0.5300
      3 N3         -3.0336    2.0625   56.5372 N.am    1  ZINC001327099466   -0.6000
      4 C4         -1.9078    2.1620   57.3621 C.2     1  ZINC001327099466    0.2900
      5 N5         -1.9065    2.1177   58.6741 N.2     1  ZINC001327099466   -0.3100
      6 N6         -0.5835    2.2516   59.1143 N.pl3   1  ZINC001327099466   -0.3500
      7 C7         -0.1370    2.2542   60.5095 C.3     1  ZINC001327099466    0.1700
      8 C8         -1.1143    1.4395   61.3593 C.3     1  ZINC001327099466   -0.1300
      9 C9         -0.6479    1.4422   62.8165 C.3     1  ZINC001327099466   -0.1200
     10 C10         0.7472    0.8205   62.9066 C.3     1  ZINC001327099466   -0.1300
     11 C11         1.7244    1.6352   62.0568 C.3     1  ZINC001327099466   -0.1200
     12 C12         1.2581    1.6325   60.5997 C.3     1  ZINC001327099466   -0.1300
     13 C13         0.2081    2.3773   58.0281 C.2     1  ZINC001327099466    0.0700
     14 C14        -0.5803    2.3204   56.9311 C.2     1  ZINC001327099466   -0.2700
     15 C15        -4.7597    3.0641   55.0960 C.2     1  ZINC001327099466    0.5100
     16 O16        -5.8707    3.0529   55.5843 O.2     1  ZINC001327099466   -0.5100
     17 N17        -4.6104    2.9806   53.7591 N.am    1  ZINC001327099466   -0.5700
     18 C18        -3.2719    2.9928   53.1532 C.3     1  ZINC001327099466    0.0400
     19 C19        -3.2219    4.0945   52.0899 C.3     1  ZINC001327099466   -0.1300
     20 C20        -4.3623    3.8857   51.0908 C.3     1  ZINC001327099466   -0.1200
     21 C21        -5.7048    3.9783   51.8197 C.3     1  ZINC001327099466    0.0800
     22 H22        -5.7908    4.9525   52.3011 H       1  ZINC001327099466    0.0700
     23 O23        -6.7696    3.8146   50.8809 O.3     1  ZINC001327099466   -0.3500
     24 C24        -7.6437    4.9415   50.7910 C.3     1  ZINC001327099466    0.0600
     25 C25        -8.7760    4.7624   49.7660 C.3     1  ZINC001327099466   -0.1600
     26 C26        -9.6033    4.1443   50.9055 C.3     1  ZINC001327099466   -0.1400
     27 C27        -8.7345    4.9629   51.8748 C.3     1  ZINC001327099466   -0.1400
     28 C28        -5.7826    2.8698   52.8804 C.3     1  ZINC001327099466    0.0900
     29 H29        -3.4366    1.1964   56.3690 H       1  ZINC001327099466    0.4300
     30 H30        -0.1024    3.2794   60.8781 H       1  ZINC001327099466    0.1000
     31 H31        -2.1082    1.8825   61.2951 H       1  ZINC001327099466    0.0700
     32 H32        -1.1488    0.4143   60.9907 H       1  ZINC001327099466    0.0700
     33 H33        -0.6133    2.4674   63.1850 H       1  ZINC001327099466    0.0700
     34 H34        -1.3442    0.8617   63.4218 H       1  ZINC001327099466    0.0700
     35 H35         1.0795    0.8224   63.9447 H       1  ZINC001327099466    0.0700
     36 H36         0.7126   -0.2048   62.5380 H       1  ZINC001327099466    0.0700
     37 H37         1.7591    2.6604   62.4254 H       1  ZINC001327099466    0.0700
     38 H38         2.7184    1.1922   62.1211 H       1  ZINC001327099466    0.0700
     39 H39         1.2235    0.6073   60.2311 H       1  ZINC001327099466    0.0700
     40 H40         1.9544    2.2129   59.9943 H       1  ZINC001327099466    0.0700
     41 H41         1.2813    2.4978   58.0342 H       1  ZINC001327099466    0.1800
     42 H42        -0.2489    2.3904   55.9055 H       1  ZINC001327099466    0.1700
     43 H43        -2.5248    3.1923   53.9214 H       1  ZINC001327099466    0.1600
     44 H44        -3.0724    2.0272   52.6886 H       1  ZINC001327099466    0.0700
     45 H45        -3.3314    5.0675   52.5687 H       1  ZINC001327099466    0.0700
     46 H46        -2.2670    4.0515   51.5662 H       1  ZINC001327099466    0.0900
     47 H47        -4.3142    4.6540   50.3192 H       1  ZINC001327099466    0.0800
     48 H48        -4.2662    2.9023   50.6304 H       1  ZINC001327099466    0.0800
     49 H49        -7.1082    5.8857   50.6916 H       1  ZINC001327099466    0.0700
     50 H50        -9.1806    5.7035   49.3936 H       1  ZINC001327099466    0.0900
     51 H51        -8.5364    4.0587   48.9690 H       1  ZINC001327099466    0.0700
     52 H52       -10.6509    4.4453   50.8975 H       1  ZINC001327099466    0.0700
     53 H53        -9.4723    3.0668   51.0053 H       1  ZINC001327099466    0.0800
     54 H54        -8.4611    4.4209   52.7802 H       1  ZINC001327099466    0.0800
     55 H55        -9.1276    5.9588   52.0789 H       1  ZINC001327099466    0.0900
     56 H56        -5.7883    1.8958   52.3911 H       1  ZINC001327099466    0.0900
     57 H57        -6.6919    2.9905   53.4692 H       1  ZINC001327099466    0.1000
@<TRIPOS>BOND
     1     1     2    2
     2     2     3   am
     3     2    15    1
     4     3     4    1
     5     3    29    1
     6     4    14    1
     7     4     5    2
     8     5     6    1
     9     6     7    1
    10     6    13    1
    11     7    12    1
    12     7     8    1
    13     7    30    1
    14     8     9    1
    15     8    31    1
    16     8    32    1
    17     9    10    1
    18     9    33    1
    19     9    34    1
    20    10    11    1
    21    10    35    1
    22    10    36    1
    23    11    12    1
    24    11    37    1
    25    11    38    1
    26    12    39    1
    27    12    40    1
    28    13    14    2
    29    13    41    1
    30    14    42    1
    31    15    16    2
    32    15    17   am
    33    17    28    1
    34    17    18    1
    35    18    19    1
    36    18    43    1
    37    18    44    1
    38    19    20    1
    39    19    45    1
    40    19    46    1
    41    20    21    1
    42    20    47    1
    43    20    48    1
    44    21    22    1
    45    21    23    1
    46    21    28    1
    47    23    24    1
    48    24    27    1
    49    24    25    1
    50    24    49    1
    51    25    26    1
    52    25    50    1
    53    25    51    1
    54    26    27    1
    55    26    52    1
    56    26    53    1
    57    27    54    1
    58    27    55    1
    59    28    56    1
    60    28    57    1
@<TRIPOS>SUBSTRUCTURE
     1 ZINC001327099466        1 TEMP              0 ****  ****    0 ROOT


##########                                Name:    ZINC000484424341
##########                DOCK_Rotatable_Bonds:                   7
##########                         Heavy_Atoms:                  26
##########                    Molecular_Weight:             359.425
##########                DOCK_Rotatable_Bonds:                   7
##########                       Formal_Charge:          -0.0100009
##########                     HBond_Acceptors:                   7
##########                        HBond_Donors:                   1
##########                         Heavy_Atoms:                  26
##########                          Grid_Score:          -29.579689
##########                     Grid_vdw_energy:          -26.282373
##########                      Grid_es_energy:           -3.297316
##########           Internal_energy_repulsive:            9.377871

@<TRIPOS>MOLECULE
ZINC000484424341
 51 53 1 0 0
SMALL
USER_CHARGES


@<TRIPOS>ATOM
      1 C1        -14.3747   -0.5590   61.8909 C.3     1  ZINC000484424341    0.0300
      2 O2        -13.0247   -0.4603   61.4328 O.3     1  ZINC000484424341   -0.3800
      3 C3        -12.3346    0.6993   61.9033 C.3     1  ZINC000484424341    0.1300
      4 H4        -12.8229    1.0722   62.8036 H       1  ZINC000484424341    0.0700
      5 C5        -12.3612    1.7821   60.8227 C.3     1  ZINC000484424341   -0.1700
      6 C6        -10.9057    0.3397   62.2191 C.ar    1  ZINC000484424341   -0.0700
      7 C7        -10.1997   -0.4938   61.3713 C.ar    1  ZINC000484424341   -0.1000
      8 C8         -8.8880   -0.8264   61.6573 C.ar    1  ZINC000484424341   -0.1000
      9 C9         -8.2789   -0.3267   62.7912 C.ar    1  ZINC000484424341   -0.1100
     10 C10        -8.9853    0.5113   63.6454 C.ar    1  ZINC000484424341    0.1400
     11 N11        -8.3719    1.0191   64.7934 N.am    1  ZINC000484424341   -0.6400
     12 C12        -8.1569    0.2157   65.8540 C.2     1  ZINC000484424341    0.5100
     13 O13        -8.4959   -0.9490   65.8118 O.2     1  ZINC000484424341   -0.4900
     14 C14        -7.5012    0.7586   67.0812 C.2     1  ZINC000484424341    0.5200
     15 O15        -8.0191    0.5988   68.1672 O.2     1  ZINC000484424341   -0.5200
     16 N16        -6.3343    1.4258   66.9827 N.am    1  ZINC000484424341   -0.5800
     17 C17        -5.5840    2.0100   68.1039 C.3     1  ZINC000484424341    0.1100
     18 C18        -4.3056    2.6456   67.5181 C.3     1  ZINC000484424341   -0.1500
     19 C19        -4.1273    1.8916   66.1738 C.3     1  ZINC000484424341    0.1500
     20 H20        -3.6302    0.9335   66.3262 H       1  ZINC000484424341    0.1100
     21 N21        -3.3954    2.7114   65.2049 N.am    1  ZINC000484424341   -0.6100
     22 C22        -4.0174    3.7103   64.3280 C.3     1  ZINC000484424341    0.1000
     23 C23        -2.8572    4.5988   63.8273 C.3     1  ZINC000484424341   -0.1300
     24 C24        -1.6517    3.6370   63.9412 C.3     1  ZINC000484424341   -0.1600
     25 C25        -2.0670    2.6491   65.0091 C.2     1  ZINC000484424341    0.5200
     26 O26        -1.3123    1.9042   65.5975 O.2     1  ZINC000484424341   -0.5200
     27 C27        -5.5957    1.6852   65.7335 C.3     1  ZINC000484424341    0.0900
     28 C28       -10.3007    0.8477   63.3521 C.ar    1  ZINC000484424341   -0.1300
     29 H29       -14.9380    0.3103   61.5517 H       1  ZINC000484424341    0.0400
     30 H30       -14.8289   -1.4653   61.4903 H       1  ZINC000484424341    0.0900
     31 H31       -14.3868   -0.5975   62.9802 H       1  ZINC000484424341    0.0400
     32 H32       -11.8730    1.4091   59.9225 H       1  ZINC000484424341    0.0700
     33 H33       -13.3948    2.0421   60.5943 H       1  ZINC000484424341    0.0600
     34 H34       -11.8348    2.6665   61.1817 H       1  ZINC000484424341    0.0700
     35 H35       -10.6738   -0.8864   60.4839 H       1  ZINC000484424341    0.1300
     36 H36        -8.3397   -1.4781   60.9931 H       1  ZINC000484424341    0.1300
     37 H37        -7.2548   -0.5870   63.0141 H       1  ZINC000484424341    0.1300
     38 H38        -8.1009    1.9498   64.8272 H       1  ZINC000484424341    0.4200
     39 H39        -6.1865    2.7742   68.5949 H       1  ZINC000484424341    0.0800
     40 H40        -5.3169    1.2304   68.8174 H       1  ZINC000484424341    0.0800
     41 H41        -4.4493    3.7122   67.3458 H       1  ZINC000484424341    0.0900
     42 H42        -3.4527    2.4712   68.1741 H       1  ZINC000484424341    0.0900
     43 H43        -4.5077    3.2206   63.4866 H       1  ZINC000484424341    0.0800
     44 H44        -4.7361    4.3086   64.8880 H       1  ZINC000484424341    0.0800
     45 H45        -3.0170    4.9030   62.7929 H       1  ZINC000484424341    0.0900
     46 H46        -2.7251    5.4678   64.4720 H       1  ZINC000484424341    0.0800
     47 H47        -1.4783    3.1288   62.9927 H       1  ZINC000484424341    0.1100
     48 H48        -0.7593    4.1792   64.2534 H       1  ZINC000484424341    0.1000
     49 H49        -5.6733    0.8325   65.0588 H       1  ZINC000484424341    0.0900
     50 H50        -5.9779    2.5859   65.2531 H       1  ZINC000484424341    0.0900
     51 H51       -10.8526    1.4990   64.0137 H       1  ZINC000484424341    0.1300
@<TRIPOS>BOND
     1     1     2    1
     2     1    29    1
     3     1    30    1
     4     1    31    1
     5     2     3    1
     6     3     4    1
     7     3     5    1
     8     3     6    1
     9     5    32    1
    10     5    33    1
    11     5    34    1
    12     6    28   ar
    13     6     7   ar
    14     7     8   ar
    15     7    35    1
    16     8     9   ar
    17     8    36    1
    18     9    10   ar
    19     9    37    1
    20    10    11    1
    21    10    28   ar
    22    11    12   am
    23    11    38    1
    24    12    13    2
    25    12    14    1
    26    14    15    2
    27    14    16   am
    28    16    27    1
    29    16    17    1
    30    17    18    1
    31    17    39    1
    32    17    40    1
    33    18    19    1
    34    18    41    1
    35    18    42    1
    36    19    20    1
    37    19    21    1
    38    19    27    1
    39    21    25   am
    40    21    22    1
    41    22    23    1
    42    22    43    1
    43    22    44    1
    44    23    24    1
    45    23    45    1
    46    23    46    1
    47    24    25    1
    48    24    47    1
    49    24    48    1
    50    25    26    2
    51    27    49    1
    52    27    50    1
    53    28    51    1
@<TRIPOS>SUBSTRUCTURE
     1 ZINC000484424341        1 TEMP              0 ****  ****    0 ROOT


##########                                Name:    ZINC001191386213
##########                DOCK_Rotatable_Bonds:                   6
##########                         Heavy_Atoms:                  29
##########                    Molecular_Weight:             392.433
##########                DOCK_Rotatable_Bonds:                   6
##########                       Formal_Charge:               -0.02
##########                     HBond_Acceptors:                   7
##########                        HBond_Donors:                   2
##########                         Heavy_Atoms:                  29
##########                          Grid_Score:          -29.561573
##########                     Grid_vdw_energy:          -29.185698
##########                      Grid_es_energy:           -0.375875
##########           Internal_energy_repulsive:           15.963272

@<TRIPOS>MOLECULE
ZINC001191386213
 50 53 1 0 0
SMALL
USER_CHARGES


@<TRIPOS>ATOM
      1 C1         -6.5140    0.2651   67.4063 C.3     1  ZINC001191386213   -0.1700
      2 C2         -7.6968    0.2726   66.4725 C.2     1  ZINC001191386213    0.5100
      3 O3         -8.7942   -0.0427   66.8814 O.2     1  ZINC001191386213   -0.5200
      4 N4         -7.5352    0.6298   65.1831 N.am    1  ZINC001191386213   -0.6800
      5 C5         -8.6335    0.6367   64.3159 C.ar    1  ZINC001191386213    0.1400
      6 C6         -9.7425    1.4217   64.6056 C.ar    1  ZINC001191386213   -0.1400
      7 C7        -10.8288    1.4314   63.7512 C.ar    1  ZINC001191386213   -0.1000
      8 C8        -10.8180    0.6609   62.6057 C.ar    1  ZINC001191386213   -0.1100
      9 C9         -9.7098   -0.1298   62.3075 C.ar    1  ZINC001191386213    0.0100
     10 C10        -9.6967   -0.9588   61.0761 C.2     1  ZINC001191386213    0.0700
     11 N11        -8.6653   -1.6199   60.5945 N.2     1  ZINC001191386213   -0.2500
     12 N12        -8.9837   -2.2383   59.5150 N.pl3   1  ZINC001191386213   -0.3800
     13 C13       -10.2972   -2.0065   59.2170 C.2     1  ZINC001191386213   -0.0400
     14 C14       -11.0456   -2.5336   58.0643 C.2     1  ZINC001191386213    0.6100
     15 O15       -11.2778   -3.7248   57.9831 O.2     1  ZINC001191386213   -0.5100
     16 N16       -11.4736   -1.6962   57.0988 N.am    1  ZINC001191386213   -0.6200
     17 C17       -12.2280   -2.0864   55.8988 C.3     1  ZINC001191386213    0.0800
     18 C18       -12.4742   -0.8045   55.0754 C.3     1  ZINC001191386213   -0.1200
     19 C19       -11.3564    0.1489   55.5743 C.3     1  ZINC001191386213   -0.0600
     20 H20       -10.4157   -0.0494   55.0606 H       1  ZINC001191386213    0.1000
     21 C21       -11.7638    1.5906   55.4117 C.ar    1  ZINC001191386213   -0.1100
     22 C22       -11.5338    2.4931   56.4324 C.ar    1  ZINC001191386213   -0.0900
     23 C23       -11.9076    3.8160   56.2836 C.ar    1  ZINC001191386213   -0.1300
     24 C24       -12.5119    4.2371   55.1140 C.ar    1  ZINC001191386213   -0.0900
     25 C25       -12.7433    3.3360   54.0917 C.ar    1  ZINC001191386213   -0.1500
     26 C26       -12.3636    2.0128   54.2370 C.ar    1  ZINC001191386213    0.1100
     27 F27       -12.5893    1.1311   53.2386 F       1  ZINC001191386213   -0.1400
     28 C28       -11.2684   -0.2365   57.0743 C.3     1  ZINC001191386213    0.1200
     29 C29       -10.7860   -1.1853   60.2151 C.2     1  ZINC001191386213   -0.1300
     30 C30        -8.6129   -0.1355   63.1641 C.ar    1  ZINC001191386213   -0.1000
     31 H31        -6.8369   -0.0482   68.3992 H       1  ZINC001191386213    0.1000
     32 H32        -5.7609   -0.4290   67.0332 H       1  ZINC001191386213    0.0900
     33 H33        -6.0887    1.2671   67.4620 H       1  ZINC001191386213    0.0900
     34 H34        -6.6574    0.8821   64.8560 H       1  ZINC001191386213    0.4100
     35 H35        -9.7560    2.0255   65.5009 H       1  ZINC001191386213    0.1300
     36 H36       -11.6888    2.0431   63.9805 H       1  ZINC001191386213    0.1300
     37 H37       -11.6688    0.6707   61.9405 H       1  ZINC001191386213    0.1300
     38 H38        -8.3816   -2.7875   58.9891 H       1  ZINC001191386213    0.4400
     39 H39       -11.6482   -2.7985   55.3115 H       1  ZINC001191386213    0.0700
     40 H40       -13.1808   -2.5299   56.1878 H       1  ZINC001191386213    0.0800
     41 H41       -12.3638   -1.0037   54.0095 H       1  ZINC001191386213    0.0900
     42 H42       -13.4591   -0.3906   55.2916 H       1  ZINC001191386213    0.0900
     43 H43       -11.0623    2.1650   57.3470 H       1  ZINC001191386213    0.1300
     44 H44       -11.7275    4.5207   57.0819 H       1  ZINC001191386213    0.1300
     45 H45       -12.8038    5.2706   54.9989 H       1  ZINC001191386213    0.1300
     46 H46       -13.2162    3.6652   53.1782 H       1  ZINC001191386213    0.1400
     47 H47       -12.0477    0.2710   57.6428 H       1  ZINC001191386213    0.0800
     48 H48       -10.2845    0.0115   57.4727 H       1  ZINC001191386213    0.0900
     49 H49       -11.7885   -0.7952   60.3103 H       1  ZINC001191386213    0.1700
     50 H50        -7.7518   -0.7468   62.9372 H       1  ZINC001191386213    0.1500
@<TRIPOS>BOND
     1     1     2    1
     2     1    31    1
     3     1    32    1
     4     1    33    1
     5     2     3    2
     6     2     4   am
     7     4     5    1
     8     4    34    1
     9     5    30   ar
    10     5     6   ar
    11     6     7   ar
    12     6    35    1
    13     7     8   ar
    14     7    36    1
    15     8     9   ar
    16     8    37    1
    17     9    10    1
    18     9    30   ar
    19    10    29    1
    20    10    11    2
    21    11    12    1
    22    12    13    1
    23    12    38    1
    24    13    14    1
    25    13    29    2
    26    14    15    2
    27    14    16   am
    28    16    28    1
    29    16    17    1
    30    17    18    1
    31    17    39    1
    32    17    40    1
    33    18    19    1
    34    18    41    1
    35    18    42    1
    36    19    20    1
    37    19    21    1
    38    19    28    1
    39    21    26   ar
    40    21    22   ar
    41    22    23   ar
    42    22    43    1
    43    23    24   ar
    44    23    44    1
    45    24    25   ar
    46    24    45    1
    47    25    26   ar
    48    25    46    1
    49    26    27    1
    50    28    47    1
    51    28    48    1
    52    29    49    1
    53    30    50    1
@<TRIPOS>SUBSTRUCTURE
     1 ZINC001191386213        1 TEMP              0 ****  ****    0 ROOT


##########                                Name:    ZINC000573150059
##########                DOCK_Rotatable_Bonds:                   7
##########                         Heavy_Atoms:                  23
##########                    Molecular_Weight:             378.269
##########                DOCK_Rotatable_Bonds:                   7
##########                       Formal_Charge:        -2.98023e-07
##########                     HBond_Acceptors:                   5
##########                        HBond_Donors:                   2
##########                         Heavy_Atoms:                  23
##########                          Grid_Score:          -29.544834
##########                     Grid_vdw_energy:          -29.887470
##########                      Grid_es_energy:            0.342635
##########           Internal_energy_repulsive:           14.789225

@<TRIPOS>MOLECULE
ZINC000573150059
 43 44 1 0 0
SMALL
USER_CHARGES


@<TRIPOS>ATOM
      1 C1         -7.5617    1.1504   51.5378 C.3     1  ZINC000573150059    0.0300
      2 O2         -7.3511    1.3534   50.1391 O.3     1  ZINC000573150059   -0.3600
      3 C3         -7.0359    2.7023   49.7885 C.3     1  ZINC000573150059    0.0700
      4 H4         -6.8755    2.7700   48.7125 H       1  ZINC000573150059    0.0900
      5 C5         -8.1942    3.6177   50.1901 C.3     1  ZINC000573150059   -0.1700
      6 C6         -5.7841    3.1297   50.5107 C.2     1  ZINC000573150059    0.5100
      7 O7         -5.6311    4.2917   50.8232 O.2     1  ZINC000573150059   -0.4900
      8 N8         -4.8348    2.2210   50.8094 N.am    1  ZINC000573150059   -0.6700
      9 C9         -3.6727    2.6179   51.4800 C.ar    1  ZINC000573150059    0.1900
     10 C10        -2.4454    2.5725   50.8307 C.ar    1  ZINC000573150059   -0.2000
     11 C11        -1.2971    2.9642   51.4920 C.ar    1  ZINC000573150059   -0.0500
     12 C12        -1.3653    3.4026   52.8001 C.ar    1  ZINC000573150059   -0.2200
     13 C13        -2.5901    3.4509   53.4553 C.ar    1  ZINC000573150059    0.2400
     14 N14        -2.6584    3.8946   54.7779 N.pl3   1  ZINC000573150059   -0.7300
     15 C15        -3.1252    2.9896   55.8310 C.3     1  ZINC000573150059    0.2000
     16 H16        -3.2701    1.9925   55.4153 H       1  ZINC000573150059    0.1000
     17 C17        -2.0837    2.9291   56.9502 C.3     1  ZINC000573150059   -0.1700
     18 C18        -4.4309    3.4968   56.3869 C.ar    1  ZINC000573150059    0.1400
     19 C19        -4.5077    4.7847   56.8821 C.ar    1  ZINC000573150059   -0.1600
     20 C20        -5.7136    5.2423   57.3910 C.ar    1  ZINC000573150059   -0.0400
     21 C21        -6.8022    4.3826   57.3827 C.ar    1  ZINC000573150059   -0.1500
     22 Br22       -8.4741    4.9478   58.0621 Br      1  ZINC000573150059   -0.0300
     23 C23        -6.6492    3.1069   56.8706 C.ar    1  ZINC000573150059    0.1400
     24 N24        -5.4879    2.7081   56.3903 N.ar    1  ZINC000573150059   -0.4700
     25 C25        -3.7456    3.0626   52.7923 C.ar    1  ZINC000573150059   -0.1900
     26 H26        -6.6587    1.4223   52.0845 H       1  ZINC000573150059    0.0500
     27 H27        -8.3912    1.7724   51.8743 H       1  ZINC000573150059    0.0400
     28 H28        -7.7959    0.1019   51.7217 H       1  ZINC000573150059    0.0900
     29 H29        -8.3545    3.5499   51.2661 H       1  ZINC000573150059    0.0700
     30 H30        -7.9537    4.6466   49.9226 H       1  ZINC000573150059    0.0700
     31 H31        -9.0995    3.3086   49.6677 H       1  ZINC000573150059    0.0700
     32 H32        -4.9572    1.2917   50.5595 H       1  ZINC000573150059    0.4100
     33 H33        -2.3888    2.2302   49.8078 H       1  ZINC000573150059    0.1200
     34 H34        -0.3442    2.9274   50.9850 H       1  ZINC000573150059    0.1300
     35 H35        -0.4660    3.7078   53.3143 H       1  ZINC000573150059    0.1200
     36 H36        -2.3967    4.8022   54.9991 H       1  ZINC000573150059    0.4100
     37 H37        -1.9388    3.9262   57.3659 H       1  ZINC000573150059    0.0600
     38 H38        -2.4310    2.2557   57.7337 H       1  ZINC000573150059    0.0700
     39 H39        -1.1392    2.5623   56.5481 H       1  ZINC000573150059    0.0700
     40 H40        -3.6394    5.4266   56.8729 H       1  ZINC000573150059    0.1500
     41 H41        -5.8030    6.2439   57.7848 H       1  ZINC000573150059    0.1500
     42 H42        -7.4916    2.4310   56.8606 H       1  ZINC000573150059    0.1700
     43 H43        -4.6986    3.0995   53.2990 H       1  ZINC000573150059    0.1400
@<TRIPOS>BOND
     1     1     2    1
     2     1    26    1
     3     1    27    1
     4     1    28    1
     5     2     3    1
     6     3     4    1
     7     3     5    1
     8     3     6    1
     9     5    29    1
    10     5    30    1
    11     5    31    1
    12     6     7    2
    13     6     8   am
    14     8     9    1
    15     8    32    1
    16     9    25   ar
    17     9    10   ar
    18    10    11   ar
    19    10    33    1
    20    11    12   ar
    21    11    34    1
    22    12    13   ar
    23    12    35    1
    24    13    14    1
    25    13    25   ar
    26    14    15    1
    27    14    36    1
    28    15    16    1
    29    15    17    1
    30    15    18    1
    31    17    37    1
    32    17    38    1
    33    17    39    1
    34    18    24   ar
    35    18    19   ar
    36    19    20   ar
    37    19    40    1
    38    20    21   ar
    39    20    41    1
    40    21    22    1
    41    21    23   ar
    42    23    24   ar
    43    23    42    1
    44    25    43    1
@<TRIPOS>SUBSTRUCTURE
     1 ZINC000573150059        1 TEMP              0 ****  ****    0 ROOT


##########                                Name:    ZINC000450219577
##########                DOCK_Rotatable_Bonds:                   8
##########                         Heavy_Atoms:                  26
##########                    Molecular_Weight:             353.421
##########                DOCK_Rotatable_Bonds:                   8
##########                       Formal_Charge:          -0.0199997
##########                     HBond_Acceptors:                   6
##########                        HBond_Donors:                   1
##########                         Heavy_Atoms:                  26
##########                          Grid_Score:          -29.535351
##########                     Grid_vdw_energy:          -29.106157
##########                      Grid_es_energy:           -0.429193
##########           Internal_energy_repulsive:           34.441277

@<TRIPOS>MOLECULE
ZINC000450219577
 49 51 1 0 0
SMALL
USER_CHARGES


@<TRIPOS>ATOM
      1 C1        -11.2888   -1.5585   52.4197 C.3     1  ZINC000450219577   -0.1800
      2 C2        -11.5894   -0.7891   53.7077 C.3     1  ZINC000450219577    0.1200
      3 C3        -10.6797    0.4381   53.7928 C.3     1  ZINC000450219577   -0.1800
      4 C4        -13.0521   -0.3404   53.7041 C.3     1  ZINC000450219577   -0.1400
      5 O5        -11.3498   -1.6495   54.8525 O.3     1  ZINC000450219577   -0.3400
      6 C6        -11.6437   -1.1493   56.0629 C.2     1  ZINC000450219577    0.4700
      7 O7        -11.9659    0.0098   56.1756 O.2     1  ZINC000450219577   -0.5000
      8 C8        -11.5719   -2.0333   57.2812 C.3     1  ZINC000450219577    0.2000
      9 H9        -10.8299   -2.8153   57.1195 H       1  ZINC000450219577    0.1400
     10 N10       -11.1892   -1.2304   58.4453 N.am    1  ZINC000450219577   -0.7100
     11 C11       -10.5169   -1.7997   59.4652 C.2     1  ZINC000450219577    0.5800
     12 O12       -10.2293   -2.9799   59.4199 O.2     1  ZINC000450219577   -0.5200
     13 C13       -10.1292   -0.9891   60.6390 C.ar    1  ZINC000450219577   -0.2500
     14 C14       -10.9704    0.0165   61.1285 C.ar    1  ZINC000450219577    0.1900
     15 N15       -10.5844    0.7168   62.1806 N.ar    1  ZINC000450219577   -0.5100
     16 C16        -9.4271    0.4792   62.7665 C.ar    1  ZINC000450219577    0.3800
     17 C17        -9.0322    1.3052   63.9634 C.3     1  ZINC000450219577   -0.1100
     18 C18       -10.0311    1.3976   65.1187 C.3     1  ZINC000450219577   -0.1500
     19 C19        -8.7573    0.5642   65.2735 C.3     1  ZINC000450219577   -0.1500
     20 N20        -8.6047   -0.4586   62.3386 N.ar    1  ZINC000450219577   -0.5200
     21 C21        -8.9132   -1.2096   61.2959 C.ar    1  ZINC000450219577    0.2200
     22 C22       -12.9194   -2.6622   57.5258 C.ar    1  ZINC000450219577   -0.1100
     23 C23       -13.2120   -3.9011   56.9872 C.ar    1  ZINC000450219577   -0.1000
     24 C24       -14.4480   -4.4780   57.2117 C.ar    1  ZINC000450219577   -0.1200
     25 C25       -15.3913   -3.8159   57.9751 C.ar    1  ZINC000450219577   -0.1100
     26 C26       -15.0984   -2.5774   58.5145 C.ar    1  ZINC000450219577   -0.1200
     27 C27       -13.8608   -2.0024   58.2937 C.ar    1  ZINC000450219577   -0.0800
     28 H28       -10.2467   -1.8781   52.4222 H       1  ZINC000450219577    0.0800
     29 H29       -11.9369   -2.4327   52.3591 H       1  ZINC000450219577    0.0600
     30 H30       -11.4687   -0.9126   51.5603 H       1  ZINC000450219577    0.0700
     31 H31       -10.8595    1.0840   52.9334 H       1  ZINC000450219577    0.0700
     32 H32       -10.8938    0.9862   54.7103 H       1  ZINC000450219577    0.0600
     33 H33        -9.6376    0.1184   53.7953 H       1  ZINC000450219577    0.0800
     34 H34       -13.7002   -1.2147   53.6435 H       1  ZINC000450219577    0.0700
     35 H35       -13.2662    0.2076   54.6217 H       1  ZINC000450219577    0.0700
     36 H36       -13.2319    0.3055   52.8447 H       1  ZINC000450219577    0.0800
     37 H37       -11.4196   -0.2888   58.4821 H       1  ZINC000450219577    0.4100
     38 H38       -11.9195    0.2173   60.6538 H       1  ZINC000450219577    0.1700
     39 H39        -8.4287    2.1869   63.7478 H       1  ZINC000450219577    0.1300
     40 H40       -10.0849    2.3404   65.6632 H       1  ZINC000450219577    0.1000
     41 H41       -10.9739    0.8610   65.0129 H       1  ZINC000450219577    0.1100
     42 H42        -8.8622   -0.5207   65.2697 H       1  ZINC000450219577    0.1000
     43 H43        -7.9732    0.9586   65.9199 H       1  ZINC000450219577    0.1100
     44 H44        -8.2344   -1.9756   60.9512 H       1  ZINC000450219577    0.1800
     45 H45       -12.4750   -4.4184   56.3908 H       1  ZINC000450219577    0.1200
     46 H46       -14.6768   -5.4456   56.7903 H       1  ZINC000450219577    0.1200
     47 H47       -16.3572   -4.2663   58.1499 H       1  ZINC000450219577    0.1300
     48 H48       -15.8355   -2.0600   59.1107 H       1  ZINC000450219577    0.1300
     49 H49       -13.6320   -1.0348   58.7150 H       1  ZINC000450219577    0.1300
@<TRIPOS>BOND
     1     1     2    1
     2     1    28    1
     3     1    29    1
     4     1    30    1
     5     2     3    1
     6     2     4    1
     7     2     5    1
     8     3    31    1
     9     3    32    1
    10     3    33    1
    11     4    34    1
    12     4    35    1
    13     4    36    1
    14     5     6    1
    15     6     7    2
    16     6     8    1
    17     8     9    1
    18     8    10    1
    19     8    22    1
    20    10    11   am
    21    10    37    1
    22    11    12    2
    23    11    13    1
    24    13    21   ar
    25    13    14   ar
    26    14    15   ar
    27    14    38    1
    28    15    16   ar
    29    16    17    1
    30    16    20   ar
    31    17    19    1
    32    17    18    1
    33    17    39    1
    34    18    19    1
    35    18    40    1
    36    18    41    1
    37    19    42    1
    38    19    43    1
    39    20    21   ar
    40    21    44    1
    41    22    27   ar
    42    22    23   ar
    43    23    24   ar
    44    23    45    1
    45    24    25   ar
    46    24    46    1
    47    25    26   ar
    48    25    47    1
    49    26    27   ar
    50    26    48    1
    51    27    49    1
@<TRIPOS>SUBSTRUCTURE
     1 ZINC000450219577        1 TEMP              0 ****  ****    0 ROOT


##########                                Name:    ZINC001456607258
##########                DOCK_Rotatable_Bonds:                   9
##########                         Heavy_Atoms:                  25
##########                    Molecular_Weight:             339.437
##########                DOCK_Rotatable_Bonds:                   9
##########                       Formal_Charge:          -0.0200009
##########                     HBond_Acceptors:                   5
##########                        HBond_Donors:                   2
##########                         Heavy_Atoms:                  25
##########                          Grid_Score:          -29.527483
##########                     Grid_vdw_energy:          -28.966703
##########                      Grid_es_energy:           -0.560780
##########           Internal_energy_repulsive:           10.079899

@<TRIPOS>MOLECULE
ZINC001456607258
 50 52 1 0 0
SMALL
USER_CHARGES


@<TRIPOS>ATOM
      1 C1        -14.4453   -2.0096   61.3307 C.3     1  ZINC001456607258   -0.1600
      2 C2        -14.2913   -2.2639   59.8298 C.3     1  ZINC001456607258   -0.1100
      3 C3        -12.8052   -2.2889   59.4667 C.3     1  ZINC001456607258   -0.1000
      4 H4        -12.2556   -2.8483   60.2236 H       1  ZINC001456607258    0.0900
      5 C5        -12.2715   -0.8563   59.4035 C.3     1  ZINC001456607258   -0.0700
      6 C6        -11.0085   -0.7545   60.2192 C.ar    1  ZINC001456607258   -0.0800
      7 C7        -11.0527   -0.2360   61.4999 C.ar    1  ZINC001456607258   -0.1200
      8 C8         -9.8941   -0.1426   62.2481 C.ar    1  ZINC001456607258   -0.1200
      9 C9         -8.6914   -0.5681   61.7158 C.ar    1  ZINC001456607258   -0.1200
     10 C10        -8.6473   -1.0874   60.4356 C.ar    1  ZINC001456607258   -0.1200
     11 C11        -9.8065   -1.1848   59.6889 C.ar    1  ZINC001456607258   -0.1200
     12 C12       -12.6272   -2.9509   58.1246 C.2     1  ZINC001456607258    0.5200
     13 O13       -11.8355   -3.8608   57.9976 O.2     1  ZINC001456607258   -0.5300
     14 N14       -13.3478   -2.5319   57.0656 N.am    1  ZINC001456607258   -0.7300
     15 C15       -13.1748   -3.1754   55.7610 C.3     1  ZINC001456607258    0.1300
     16 C16       -11.8499   -2.7254   55.1421 C.3     1  ZINC001456607258   -0.1400
     17 C17       -11.8683   -2.6803   53.6034 C.3     1  ZINC001456607258    0.1100
     18 N18       -11.1309   -1.4083   53.7319 N.am    1  ZINC001456607258   -0.6500
     19 C19       -10.2926   -0.7177   52.9338 C.2     1  ZINC001456607258    0.6100
     20 O20       -10.0098   -1.1477   51.8319 O.2     1  ZINC001456607258   -0.5400
     21 C21        -9.7194    0.5576   53.3961 C.2     1  ZINC001456607258   -0.2300
     22 C22       -10.3739    1.5630   54.0529 C.2     1  ZINC001456607258    0.0400
     23 N23        -9.4951    2.5534   54.2975 N.pl3   1  ZINC001456607258   -0.5500
     24 C24        -8.2629    2.2233   53.8132 C.2     1  ZINC001456607258   -0.0200
     25 C25        -8.3295    1.0034   53.2510 C.2     1  ZINC001456607258   -0.1400
     26 C26       -11.6800   -1.1964   55.0852 C.3     1  ZINC001456607258    0.1100
     27 H27       -15.5023   -1.9007   61.5742 H       1  ZINC001456607258    0.0600
     28 H28       -14.0293   -2.8502   61.8862 H       1  ZINC001456607258    0.0600
     29 H29       -13.9144   -1.0970   61.6010 H       1  ZINC001456607258    0.0600
     30 H30       -14.7437   -3.2224   59.5754 H       1  ZINC001456607258    0.0800
     31 H31       -14.7879   -1.4687   59.2738 H       1  ZINC001456607258    0.0700
     32 H32       -12.0571   -0.5939   58.3675 H       1  ZINC001456607258    0.0800
     33 H33       -13.0191   -0.1720   59.8045 H       1  ZINC001456607258    0.0900
     34 H34       -11.9924    0.0964   61.9158 H       1  ZINC001456607258    0.1200
     35 H35        -9.9286    0.2631   63.2485 H       1  ZINC001456607258    0.1200
     36 H36        -7.7861   -0.4944   62.3002 H       1  ZINC001456607258    0.1200
     37 H37        -7.7076   -1.4194   60.0196 H       1  ZINC001456607258    0.1200
     38 H38        -9.7721   -1.5906   58.6886 H       1  ZINC001456607258    0.1200
     39 H39       -13.9811   -1.8042   57.1673 H       1  ZINC001456607258    0.4000
     40 H40       -13.1672   -4.2580   55.8880 H       1  ZINC001456607258    0.0700
     41 H41       -13.9974   -2.8924   55.1042 H       1  ZINC001456607258    0.0800
     42 H42       -10.9879   -3.2475   55.5573 H       1  ZINC001456607258    0.1100
     43 H43       -11.2914   -3.4769   53.1336 H       1  ZINC001456607258    0.0800
     44 H44       -12.8660   -2.5688   53.1790 H       1  ZINC001456607258    0.0900
     45 H45       -11.4182    1.5627   54.3282 H       1  ZINC001456607258    0.1700
     46 H46        -9.7077    3.3832   54.7527 H       1  ZINC001456607258    0.4200
     47 H47        -7.3777    2.8388   53.8757 H       1  ZINC001456607258    0.1700
     48 H48        -7.5220    0.4629   52.7796 H       1  ZINC001456607258    0.1500
     49 H49       -12.6226   -0.6490   55.0961 H       1  ZINC001456607258    0.0900
     50 H50       -10.9530   -0.8083   55.7986 H       1  ZINC001456607258    0.0900
@<TRIPOS>BOND
     1     1     2    1
     2     1    27    1
     3     1    28    1
     4     1    29    1
     5     2     3    1
     6     2    30    1
     7     2    31    1
     8     3     4    1
     9     3     5    1
    10     3    12    1
    11     5     6    1
    12     5    32    1
    13     5    33    1
    14     6    11   ar
    15     6     7   ar
    16     7     8   ar
    17     7    34    1
    18     8     9   ar
    19     8    35    1
    20     9    10   ar
    21     9    36    1
    22    10    11   ar
    23    10    37    1
    24    11    38    1
    25    12    13    2
    26    12    14   am
    27    14    15    1
    28    14    39    1
    29    15    16    1
    30    15    40    1
    31    15    41    1
    32    16    26    1
    33    16    17    1
    34    16    42    1
    35    17    18    1
    36    17    43    1
    37    17    44    1
    38    18    19   am
    39    18    26    1
    40    19    20    2
    41    19    21    1
    42    21    25    1
    43    21    22    2
    44    22    23    1
    45    22    45    1
    46    23    24    1
    47    23    46    1
    48    24    25    2
    49    24    47    1
    50    25    48    1
    51    26    49    1
    52    26    50    1
@<TRIPOS>SUBSTRUCTURE
     1 ZINC001456607258        1 TEMP              0 ****  ****    0 ROOT


##########                                Name:    ZINC001220171460
##########                DOCK_Rotatable_Bonds:                  10
##########                         Heavy_Atoms:                  25
##########                    Molecular_Weight:             383.773
##########                DOCK_Rotatable_Bonds:                  10
##########                       Formal_Charge:           0.0199996
##########                     HBond_Acceptors:                  10
##########                        HBond_Donors:                   3
##########                         Heavy_Atoms:                  25
##########                          Grid_Score:          -29.527000
##########                     Grid_vdw_energy:          -27.584011
##########                      Grid_es_energy:           -1.942990
##########           Internal_energy_repulsive:           10.417387

@<TRIPOS>MOLECULE
ZINC001220171460
 43 44 1 0 0
SMALL
USER_CHARGES


@<TRIPOS>ATOM
      1 C1         -9.6365    3.8764   51.8951 C.3     1  ZINC001220171460    0.0200
      2 O2         -9.2590    2.8723   52.8392 O.3     1  ZINC001220171460   -0.3100
      3 C3         -9.7486    1.6194   52.6371 C.ar    1  ZINC001220171460    0.1000
      4 C4        -11.1159    1.4118   52.5686 C.ar    1  ZINC001220171460   -0.1500
      5 C5        -11.6134    0.1369   52.3629 C.ar    1  ZINC001220171460   -0.0600
      6 Cl6       -13.3280   -0.1207   52.2769 Cl      1  ZINC001220171460   -0.0400
      7 C7        -10.7457   -0.9341   52.2252 C.ar    1  ZINC001220171460    0.1000
      8 F8        -11.2352   -2.1771   52.0241 F       1  ZINC001220171460   -0.1200
      9 C9         -9.3780   -0.7326   52.2927 C.ar    1  ZINC001220171460   -0.1200
     10 C10        -8.8748    0.5441   52.4929 C.ar    1  ZINC001220171460    0.1800
     11 N11        -7.4897    0.7504   52.5617 N.am    1  ZINC001220171460   -0.6700
     12 C12        -6.8515    1.3804   51.5556 C.2     1  ZINC001220171460    0.7100
     13 O13        -7.4770    1.7700   50.5884 O.2     1  ZINC001220171460   -0.5700
     14 N14        -5.5201    1.5788   51.6217 N.am    1  ZINC001220171460   -0.7400
     15 C15        -4.8261    2.2621   50.5273 C.3     1  ZINC001220171460    0.1400
     16 C16        -4.5546    3.7147   50.9238 C.3     1  ZINC001220171460   -0.1400
     17 C17        -3.3010    3.7788   51.7987 C.3     1  ZINC001220171460    0.0500
     18 H18        -3.1181    2.8007   52.2436 H       1  ZINC001220171460    0.1000
     19 N19        -2.1480    4.1653   50.9746 N.3     1  ZINC001220171460   -0.6500
     20 C20        -1.2435    3.0264   50.7676 C.3     1  ZINC001220171460    0.0100
     21 C21         0.2609    3.2994   50.8255 C.3     1  ZINC001220171460   -0.2000
     22 C22        -0.4247    2.5472   51.9679 C.3     1  ZINC001220171460   -0.1600
     23 C23        -3.5052    4.8132   52.9074 C.3     1  ZINC001220171460    0.4600
     24 F24        -2.2755    5.1003   53.5095 F       1  ZINC001220171460   -0.1800
     25 F25        -4.0411    5.9838   52.3601 F       1  ZINC001220171460   -0.1800
     26 F26        -4.3858    4.3011   53.8665 F       1  ZINC001220171460   -0.1700
     27 H27        -9.2971    3.5862   50.9008 H       1  ZINC001220171460    0.0600
     28 H28       -10.7213    3.9828   51.8919 H       1  ZINC001220171460    0.0600
     29 H29        -9.1792    4.8262   52.1724 H       1  ZINC001220171460    0.1100
     30 H30       -11.7945    2.2451   52.6761 H       1  ZINC001220171460    0.1500
     31 H31        -8.7027   -1.5686   52.1854 H       1  ZINC001220171460    0.1800
     32 H32        -6.9908    0.4396   53.3333 H       1  ZINC001220171460    0.4200
     33 H33        -5.0213    1.2691   52.3939 H       1  ZINC001220171460    0.4000
     34 H34        -3.8810    1.7579   50.3254 H       1  ZINC001220171460    0.0800
     35 H35        -5.4482    2.2399   49.6326 H       1  ZINC001220171460    0.0700
     36 H36        -4.4021    4.3139   50.0262 H       1  ZINC001220171460    0.1000
     37 H37        -5.4066    4.1046   51.4807 H       1  ZINC001220171460    0.1000
     38 H38        -2.4476    4.5538   50.0930 H       1  ZINC001220171460    0.3600
     39 H39        -1.5916    2.2717   50.0622 H       1  ZINC001220171460    0.1200
     40 H40         0.9028    2.7243   50.1581 H       1  ZINC001220171460    0.1000
     41 H41         0.5794    4.3240   51.0173 H       1  ZINC001220171460    0.1000
     42 H42        -0.5572    3.0770   52.9112 H       1  ZINC001220171460    0.1000
     43 H43        -0.2338    1.4774   52.0521 H       1  ZINC001220171460    0.1000
@<TRIPOS>BOND
     1     1     2    1
     2     1    27    1
     3     1    28    1
     4     1    29    1
     5     2     3    1
     6     3    10   ar
     7     3     4   ar
     8     4     5   ar
     9     4    30    1
    10     5     6    1
    11     5     7   ar
    12     7     8    1
    13     7     9   ar
    14     9    10   ar
    15     9    31    1
    16    10    11    1
    17    11    12   am
    18    11    32    1
    19    12    13    2
    20    12    14   am
    21    14    15    1
    22    14    33    1
    23    15    16    1
    24    15    34    1
    25    15    35    1
    26    16    17    1
    27    16    36    1
    28    16    37    1
    29    17    18    1
    30    17    19    1
    31    17    23    1
    32    19    20    1
    33    19    38    1
    34    20    22    1
    35    20    21    1
    36    20    39    1
    37    21    22    1
    38    21    40    1
    39    21    41    1
    40    22    42    1
    41    22    43    1
    42    23    24    1
    43    23    25    1
    44    23    26    1
@<TRIPOS>SUBSTRUCTURE
     1 ZINC001220171460        1 TEMP              0 ****  ****    0 ROOT


##########                                Name:    ZINC001067560454
##########                DOCK_Rotatable_Bonds:                   4
##########                         Heavy_Atoms:                  25
##########                    Molecular_Weight:             342.444
##########                DOCK_Rotatable_Bonds:                   4
##########                       Formal_Charge:          0.00999971
##########                     HBond_Acceptors:                   7
##########                        HBond_Donors:                   1
##########                         Heavy_Atoms:                  25
##########                          Grid_Score:          -29.521038
##########                     Grid_vdw_energy:          -28.397715
##########                      Grid_es_energy:           -1.123323
##########           Internal_energy_repulsive:           13.044917

@<TRIPOS>MOLECULE
ZINC001067560454
 51 54 1 0 0
SMALL
USER_CHARGES


@<TRIPOS>ATOM
      1 C1        -10.8802    1.7988   54.8285 C.3     1  ZINC001067560454   -0.1500
      2 C2        -10.1221    1.3814   53.5668 C.3     1  ZINC001067560454    0.1000
      3 H3        -10.5927    1.8339   52.6939 H       1  ZINC001067560454    0.0600
      4 C4         -8.6696    1.8531   53.6651 C.3     1  ZINC001067560454   -0.1200
      5 C5         -7.9100    1.4158   52.4096 C.3     1  ZINC001067560454    0.1400
      6 H6         -8.3530    1.8881   51.5327 H       1  ZINC001067560454    0.0900
      7 N7         -6.5051    1.8152   52.5234 N.am    1  ZINC001067560454   -0.7200
      8 C8         -5.8986    2.4458   51.4982 C.2     1  ZINC001067560454    0.5400
      9 O9         -6.5155    2.6813   50.4809 O.2     1  ZINC001067560454   -0.5300
     10 C10        -4.4539    2.8582   51.6160 C.3     1  ZINC001067560454   -0.1100
     11 C11        -4.0022    3.0325   53.0673 C.3     1  ZINC001067560454   -0.1300
     12 C12        -3.4977    2.0011   50.7699 C.3     1  ZINC001067560454   -0.1200
     13 C13        -3.7441    2.9973   49.6245 C.3     1  ZINC001067560454   -0.1400
     14 C14        -4.0743    4.0389   50.7067 C.3     1  ZINC001067560454   -0.1200
     15 C15        -8.0010   -0.1064   52.2718 C.3     1  ZINC001067560454   -0.1200
     16 C16        -9.4729   -0.5214   52.2139 C.3     1  ZINC001067560454    0.0600
     17 N17       -10.1552   -0.0810   53.4374 N.3     1  ZINC001067560454   -0.4900
     18 C18       -11.4557   -0.5528   53.4773 C.ar    1  ZINC001067560454    0.4400
     19 C19       -11.8741   -1.4219   54.4991 C.ar    1  ZINC001067560454   -0.0800
     20 N20       -11.2750   -1.9842   55.5762 N.2     1  ZINC001067560454   -0.4700
     21 C21       -12.1342   -2.7280   56.2104 C.2     1  ZINC001067560454    0.2700
     22 N22       -13.3409   -2.6888   55.5775 N.pl3   1  ZINC001067560454   -0.4800
     23 C23       -14.5579   -3.3940   55.9870 C.3     1  ZINC001067560454    0.0800
     24 C24       -13.2069   -1.8671   54.4869 C.ar    1  ZINC001067560454    0.2800
     25 N25       -14.0171   -1.4537   53.5181 N.ar    1  ZINC001067560454   -0.5200
     26 C26       -13.5810   -0.6384   52.5810 C.ar    1  ZINC001067560454    0.3300
     27 N27       -12.3393   -0.1902   52.5531 N.ar    1  ZINC001067560454   -0.5100
     28 H28       -10.4098    1.3463   55.7015 H       1  ZINC001067560454    0.0700
     29 H29       -10.8560    2.8843   54.9244 H       1  ZINC001067560454    0.0700
     30 H30       -11.9149    1.4632   54.7585 H       1  ZINC001067560454    0.0500
     31 H31        -8.6446    2.9399   53.7455 H       1  ZINC001067560454    0.0800
     32 H32        -8.2024    1.4116   54.5453 H       1  ZINC001067560454    0.0800
     33 H33        -6.0114    1.6258   53.3365 H       1  ZINC001067560454    0.4000
     34 H34        -4.2805    2.1497   53.6429 H       1  ZINC001067560454    0.0600
     35 H35        -2.9202    3.1602   53.0982 H       1  ZINC001067560454    0.0700
     36 H36        -4.4842    3.9117   53.4948 H       1  ZINC001067560454    0.0600
     37 H37        -2.4710    2.0019   51.1360 H       1  ZINC001067560454    0.0900
     38 H38        -3.8745    0.9990   50.5656 H       1  ZINC001067560454    0.0700
     39 H39        -2.8480    3.2331   49.0506 H       1  ZINC001067560454    0.0700
     40 H40        -4.5949    2.7370   48.9949 H       1  ZINC001067560454    0.0800
     41 H41        -4.9166    4.6818   50.4513 H       1  ZINC001067560454    0.0800
     42 H42        -3.2052    4.5968   51.0555 H       1  ZINC001067560454    0.0900
     43 H43        -7.4984   -0.4197   51.3568 H       1  ZINC001067560454    0.0800
     44 H44        -7.5233   -0.5788   53.1302 H       1  ZINC001067560454    0.0800
     45 H45        -9.9466   -0.0597   51.3475 H       1  ZINC001067560454    0.0700
     46 H46        -9.5415   -1.6060   52.1301 H       1  ZINC001067560454    0.0800
     47 H47       -11.9223   -3.2934   57.1058 H       1  ZINC001067560454    0.2300
     48 H48       -15.1342   -2.7620   56.6628 H       1  ZINC001067560454    0.0800
     49 H49       -15.1573   -3.6258   55.1066 H       1  ZINC001067560454    0.0900
     50 H50       -14.2879   -4.3190   56.4964 H       1  ZINC001067560454    0.0900
     51 H51       -14.2654   -0.3215   51.8080 H       1  ZINC001067560454    0.2100
@<TRIPOS>BOND
     1     1     2    1
     2     1    28    1
     3     1    29    1
     4     1    30    1
     5     2     3    1
     6     2    17    1
     7     2     4    1
     8     4     5    1
     9     4    31    1
    10     4    32    1
    11     5     6    1
    12     5     7    1
    13     5    15    1
    14     7     8   am
    15     7    33    1
    16     8     9    2
    17     8    10    1
    18    10    14    1
    19    10    11    1
    20    10    12    1
    21    11    34    1
    22    11    35    1
    23    11    36    1
    24    12    13    1
    25    12    37    1
    26    12    38    1
    27    13    14    1
    28    13    39    1
    29    13    40    1
    30    14    41    1
    31    14    42    1
    32    15    16    1
    33    15    43    1
    34    15    44    1
    35    16    17    1
    36    16    45    1
    37    16    46    1
    38    17    18    1
    39    18    27   ar
    40    18    19   ar
    41    19    24   ar
    42    19    20    1
    43    20    21    2
    44    21    22    1
    45    21    47    1
    46    22    23    1
    47    22    24    1
    48    23    48    1
    49    23    49    1
    50    23    50    1
    51    24    25   ar
    52    25    26   ar
    53    26    27   ar
    54    26    51    1
@<TRIPOS>SUBSTRUCTURE
     1 ZINC001067560454        1 TEMP              0 ****  ****    0 ROOT


##########                                Name:    ZINC000888733009
##########                DOCK_Rotatable_Bonds:                   6
##########                         Heavy_Atoms:                  25
##########                    Molecular_Weight:             360.434
##########                DOCK_Rotatable_Bonds:                   6
##########                       Formal_Charge:        -1.02073e-06
##########                     HBond_Acceptors:                   7
##########                        HBond_Donors:                   2
##########                         Heavy_Atoms:                  25
##########                          Grid_Score:          -29.502604
##########                     Grid_vdw_energy:          -28.555555
##########                      Grid_es_energy:           -0.947048
##########           Internal_energy_repulsive:            3.719693

@<TRIPOS>MOLECULE
ZINC000888733009
 45 48 1 0 0
SMALL
USER_CHARGES


@<TRIPOS>ATOM
      1 C1         -2.8807    2.3885   50.3040 C.3     1  ZINC000888733009   -0.1500
      2 C2         -4.2523    2.8846   50.7664 C.3     1  ZINC000888733009    0.0700
      3 H3         -4.1617    3.8635   51.2371 H       1  ZINC000888733009    0.0700
      4 C4         -4.8882    1.8717   51.7484 C.3     1  ZINC000888733009   -0.1300
      5 C5         -6.3790    1.9036   51.3858 C.3     1  ZINC000888733009   -0.1100
      6 C6         -7.0351    0.5457   51.1491 C.3     1  ZINC000888733009   -0.1300
      7 C7         -8.2847    1.1287   51.8343 C.3     1  ZINC000888733009    0.1200
      8 N8         -8.9484    0.1884   52.7407 N.am    1  ZINC000888733009   -0.7100
      9 C9        -10.2776    0.2748   52.9463 C.2     1  ZINC000888733009    0.5900
     10 O10       -10.9268    1.1331   52.3777 O.2     1  ZINC000888733009   -0.5600
     11 C11       -10.9414   -0.6650   53.8546 C.2     1  ZINC000888733009   -0.2400
     12 C12       -10.9666   -0.5138   55.2173 C.2     1  ZINC000888733009    0.0800
     13 N13       -10.3760    0.5336   55.9047 N.am    1  ZINC000888733009   -0.6100
     14 C14       -11.1440    1.4422   56.5380 C.2     1  ZINC000888733009    0.6000
     15 O15       -12.3565    1.3416   56.5071 O.2     1  ZINC000888733009   -0.4900
     16 C16       -10.5190    2.5518   57.2640 C.2     1  ZINC000888733009   -0.0900
     17 C17        -9.1777    2.7857   57.3723 C.2     1  ZINC000888733009   -0.1000
     18 C18        -9.0319    3.9451   58.1498 C.2     1  ZINC000888733009   -0.2300
     19 C19       -10.2745    4.3629   58.4780 C.2     1  ZINC000888733009    0.0100
     20 O20       -11.1680    3.5241   57.9376 O.3     1  ZINC000888733009   -0.1600
     21 S21       -11.8251   -1.7917   55.9490 S.3     1  ZINC000888733009    0.3000
     22 C22       -12.1631   -2.5525   54.4044 C.2     1  ZINC000888733009   -0.2800
     23 C23       -11.6450   -1.8476   53.4088 C.2     1  ZINC000888733009   -0.0900
     24 C24        -7.3429    2.1140   52.5507 C.3     1  ZINC000888733009   -0.1400
     25 C25        -6.4917    2.9107   50.2337 C.3     1  ZINC000888733009    0.0700
     26 O26        -5.1674    2.9464   49.6495 O.3     1  ZINC000888733009   -0.3700
     27 H27        -2.4582    3.0986   49.5931 H       1  ZINC000888733009    0.0600
     28 H28        -2.2181    2.2979   51.1646 H       1  ZINC000888733009    0.0700
     29 H29        -2.9890    1.4154   49.8248 H       1  ZINC000888733009    0.0600
     30 H30        -4.4766    0.8747   51.5908 H       1  ZINC000888733009    0.0800
     31 H31        -4.7375    2.1912   52.7796 H       1  ZINC000888733009    0.0800
     32 H32        -7.1839    0.3093   50.0954 H       1  ZINC000888733009    0.0800
     33 H33        -6.5700   -0.2679   51.7057 H       1  ZINC000888733009    0.0900
     34 H34        -8.9768    1.6095   51.1430 H       1  ZINC000888733009    0.1200
     35 H35        -8.4313   -0.4964   53.1929 H       1  ZINC000888733009    0.4000
     36 H36        -9.4096    0.6131   55.9303 H       1  ZINC000888733009    0.4400
     37 H37        -8.3832    2.1933   56.9431 H       1  ZINC000888733009    0.1700
     38 H38        -8.1015    4.4149   58.4329 H       1  ZINC000888733009    0.1600
     39 H39       -10.5087    5.2325   59.0740 H       1  ZINC000888733009    0.2200
     40 H40       -12.7213   -3.4688   54.2814 H       1  ZINC000888733009    0.1700
     41 H41       -11.7323   -2.1317   52.3705 H       1  ZINC000888733009    0.1500
     42 H42        -6.9649    1.7439   53.5037 H       1  ZINC000888733009    0.0900
     43 H43        -7.7371    3.1283   52.6148 H       1  ZINC000888733009    0.0800
     44 H44        -7.2224    2.5697   49.5004 H       1  ZINC000888733009    0.0900
     45 H45        -6.7642    3.8951   50.6142 H       1  ZINC000888733009    0.0700
@<TRIPOS>BOND
     1     1     2    1
     2     1    27    1
     3     1    28    1
     4     1    29    1
     5     2     3    1
     6     2    26    1
     7     2     4    1
     8     4     5    1
     9     4    30    1
    10     4    31    1
    11     5    24    1
    12     5     6    1
    13     5    25    1
    14     6     7    1
    15     6    32    1
    16     6    33    1
    17     7     8    1
    18     7    24    1
    19     7    34    1
    20     8     9   am
    21     8    35    1
    22     9    10    2
    23     9    11    1
    24    11    23    1
    25    11    12    2
    26    12    13    1
    27    12    21    1
    28    13    14   am
    29    13    36    1
    30    14    15    2
    31    14    16    1
    32    16    20    1
    33    16    17    2
    34    17    18    1
    35    17    37    1
    36    18    19    2
    37    18    38    1
    38    19    20    1
    39    19    39    1
    40    21    22    1
    41    22    23    2
    42    22    40    1
    43    23    41    1
    44    24    42    1
    45    24    43    1
    46    25    26    1
    47    25    44    1
    48    25    45    1
@<TRIPOS>SUBSTRUCTURE
     1 ZINC000888733009        1 TEMP              0 ****  ****    0 ROOT


##########                                Name:    ZINC000291036115
##########                DOCK_Rotatable_Bonds:                   5
##########                         Heavy_Atoms:                  22
##########                    Molecular_Weight:             366.193
##########                DOCK_Rotatable_Bonds:                   5
##########                       Formal_Charge:                0.01
##########                     HBond_Acceptors:                   7
##########                        HBond_Donors:                   0
##########                         Heavy_Atoms:                  22
##########                          Grid_Score:          -29.488539
##########                     Grid_vdw_energy:          -28.076735
##########                      Grid_es_energy:           -1.411804
##########           Internal_energy_repulsive:            7.507967

@<TRIPOS>MOLECULE
ZINC000291036115
 35 37 1 0 0
SMALL
USER_CHARGES


@<TRIPOS>ATOM
      1 C1         -9.6934    0.1333   59.6000 C.3     1  <0>        -0.1500
      2 C2         -9.6272   -0.8984   60.7279 C.3     1  <0>        -0.0400
      3 H3         -8.7505   -1.5314   60.5902 H       1  <0>         0.0900
      4 C4        -10.8893   -1.7628   60.7031 C.3     1  <0>        -0.0200
      5 C5        -10.9789   -2.4832   59.3825 C.2     1  <0>         0.1900
      6 N6        -11.7017   -2.1290   58.3472 N.2     1  <0>        -0.4500
      7 C7        -11.4679   -3.0614   57.4065 C.2     1  <0>         0.1500
      8 C8        -12.0666   -3.1034   56.0241 C.3     1  <0>         0.2300
      9 N9        -13.2611   -3.9516   56.0350 N.pl3   1  <0>        -0.3900
     10 C10       -14.4012   -3.7462   55.3530 C.2     1  <0>         0.2600
     11 N11       -15.2224   -4.7263   55.6302 N.2     1  <0>        -0.5400
     12 C12       -14.6445   -5.5729   56.4816 C.2     1  <0>         0.2000
     13 N13       -13.4403   -5.1440   56.7550 N.2     1  <0>        -0.3100
     14 N14       -10.6304   -3.9190   57.9082 N.2     1  <0>        -0.3600
     15 O15       -10.3325   -3.6018   59.0406 O.3     1  <0>         0.0900
     16 C16        -9.5308   -0.1880   62.0534 C.ar    1  <0>        -0.0900
     17 C17        -8.3672   -0.2656   62.7955 C.ar    1  <0>        -0.0700
     18 C18        -8.2770    0.3858   64.0113 C.ar    1  <0>        -0.1400
     19 C19        -9.3524    1.1163   64.4862 C.ar    1  <0>         0.1300
     20 F20        -9.2651    1.7537   65.6741 F       1  <0>        -0.1200
     21 C21       -10.5186    1.1937   63.7418 C.ar    1  <0>        -0.1300
     22 Br22      -11.9891    2.1915   64.3880 Br      1  <0>        -0.0200
     23 C23       -10.6043    0.5455   62.5236 C.ar    1  <0>        -0.0500
     24 H24        -9.7631   -0.3805   58.6412 H       1  <0>         0.0600
     25 H25       -10.5700    0.7663   59.7376 H       1  <0>         0.0700
     26 H26        -8.7942    0.7492   59.6176 H       1  <0>         0.0700
     27 H27       -10.8464   -2.4917   61.5124 H       1  <0>         0.1200
     28 H28       -11.7666   -1.1287   60.8313 H       1  <0>         0.1100
     29 H29       -12.3403   -2.0944   55.7159 H       1  <0>         0.1300
     30 H30       -11.3373   -3.5119   55.3246 H       1  <0>         0.1200
     31 H31       -14.6043   -2.9164   54.6921 H       1  <0>         0.2200
     32 H32       -15.0961   -6.4702   56.8781 H       1  <0>         0.2200
     33 H33        -7.5281   -0.8359   62.4252 H       1  <0>         0.1400
     34 H34        -7.3677    0.3246   64.5908 H       1  <0>         0.1500
     35 H35       -11.5130    0.6054   61.9430 H       1  <0>         0.1400
@<TRIPOS>BOND
     1     1     2    1
     2     1    24    1
     3     1    25    1
     4     1    26    1
     5     2     3    1
     6     2     4    1
     7     2    16    1
     8     4     5    1
     9     4    27    1
    10     4    28    1
    11     5    15    1
    12     5     6    2
    13     6     7    1
    14     7     8    1
    15     7    14    2
    16     8     9    1
    17     8    29    1
    18     8    30    1
    19     9    13    1
    20     9    10    1
    21    10    11    2
    22    10    31    1
    23    11    12    1
    24    12    13    2
    25    12    32    1
    26    14    15    1
    27    16    23   ar
    28    16    17   ar
    29    17    18   ar
    30    17    33    1
    31    18    19   ar
    32    18    34    1
    33    19    20    1
    34    19    21   ar
    35    21    22    1
    36    21    23   ar
    37    23    35    1
@<TRIPOS>SUBSTRUCTURE
     1 <0>         1 TEMP              0 ****  ****    0 ROOT


##########                                Name:    ZINC000866717058
##########                DOCK_Rotatable_Bonds:                   7
##########                         Heavy_Atoms:                  25
##########                    Molecular_Weight:             380.388
##########                DOCK_Rotatable_Bonds:                   7
##########                       Formal_Charge:                0.04
##########                     HBond_Acceptors:                  10
##########                        HBond_Donors:                   1
##########                         Heavy_Atoms:                  25
##########                          Grid_Score:          -29.485228
##########                     Grid_vdw_energy:          -28.756142
##########                      Grid_es_energy:           -0.729085
##########           Internal_energy_repulsive:            9.304826

@<TRIPOS>MOLECULE
ZINC000866717058
 44 45 1 0 0
SMALL
USER_CHARGES


@<TRIPOS>ATOM
      1 C1         -8.0850    1.9238   54.3690 C.3     1  ZINC000866717058   -0.1100
      2 C2         -9.1698    0.9387   54.0177 C.ar    1  ZINC000866717058    0.2400
      3 N3        -10.1291    0.6889   54.8838 N.ar    1  ZINC000866717058   -0.5500
      4 C4        -11.1028   -0.1688   54.6187 C.ar    1  ZINC000866717058    0.3500
      5 O5        -12.0675   -0.3907   55.5440 O.3     1  ZINC000866717058   -0.2800
      6 C6        -11.8690   -1.4879   56.4377 C.3     1  ZINC000866717058    0.0500
      7 H7        -11.0160   -2.0787   56.1040 H       1  ZINC000866717058    0.1300
      8 C8        -11.6007   -0.9557   57.8469 C.3     1  ZINC000866717058   -0.1700
      9 C9        -13.1221   -2.3655   56.4540 C.3     1  ZINC000866717058    0.4600
     10 F10       -14.2112   -1.6150   56.9099 F       1  ZINC000866717058   -0.1700
     11 F11       -13.3839   -2.8287   55.1601 F       1  ZINC000866717058   -0.1700
     12 F12       -12.9172   -3.4555   57.3069 F       1  ZINC000866717058   -0.1700
     13 C13       -11.1497   -0.8448   53.4036 C.ar    1  ZINC000866717058   -0.1900
     14 C14       -10.1648   -0.6144   52.4650 C.ar    1  ZINC000866717058    0.0000
     15 C15        -9.1511    0.3041   52.7748 C.ar    1  ZINC000866717058   -0.2300
     16 C16        -8.0745    0.5868   51.8054 C.2     1  ZINC000866717058    0.5800
     17 O17        -7.2101   -0.2427   51.5978 O.2     1  ZINC000866717058   -0.5200
     18 N18        -8.0495    1.7645   51.1504 N.am    1  ZINC000866717058   -0.7400
     19 C19        -6.9799    2.0457   50.1895 C.3     1  ZINC000866717058    0.1400
     20 C20        -5.7285    2.5060   50.9399 C.3     1  ZINC000866717058   -0.5700
     21 H21        -5.5141    1.8408   51.7763 H       1  ZINC000866717058    0.1500
     22 C22        -4.5131    2.5937   49.9811 C.3     1  ZINC000866717058   -0.1100
     23 C23        -3.4761    3.5006   50.6667 C.3     1  ZINC000866717058   -0.1200
     24 C24        -4.1906    4.7641   51.1858 C.3     1  ZINC000866717058   -0.5900
     25 S25        -5.9148    4.2360   51.5157 S.o2    1  ZINC000866717058    2.3700
     26 O26        -6.7948    4.9280   50.6405 O.2     1  ZINC000866717058   -0.9200
     27 O27        -6.1514    4.2493   52.9168 O.2     1  ZINC000866717058   -0.9300
     28 H28        -8.3304    2.8995   53.9496 H       1  ZINC000866717058    0.0900
     29 H29        -8.0043    2.0042   55.4530 H       1  ZINC000866717058    0.0700
     30 H30        -7.1354    1.5804   53.9584 H       1  ZINC000866717058    0.1100
     31 H31       -11.4493   -1.7927   58.5287 H       1  ZINC000866717058    0.0900
     32 H32       -10.7080   -0.3305   57.8353 H       1  ZINC000866717058    0.0900
     33 H33       -12.4538   -0.3650   58.1807 H       1  ZINC000866717058    0.0800
     34 H34       -11.9479   -1.5425   53.1974 H       1  ZINC000866717058    0.1600
     35 H35       -10.1764   -1.1256   51.5137 H       1  ZINC000866717058    0.1500
     36 H36        -8.7397    2.4258   51.3151 H       1  ZINC000866717058    0.4000
     37 H37        -6.7526    1.1420   49.6241 H       1  ZINC000866717058    0.1000
     38 H38        -7.3028    2.8305   49.5057 H       1  ZINC000866717058    0.1000
     39 H39        -4.0925    1.6012   49.8198 H       1  ZINC000866717058    0.1100
     40 H40        -4.8188    3.0292   49.0298 H       1  ZINC000866717058    0.0900
     41 H41        -3.0193    2.9689   51.5014 H       1  ZINC000866717058    0.0900
     42 H42        -2.7057    3.7838   49.9495 H       1  ZINC000866717058    0.1000
     43 H43        -3.7218    5.1132   52.1058 H       1  ZINC000866717058    0.1400
     44 H44        -4.1708    5.5482   50.4289 H       1  ZINC000866717058    0.1400
@<TRIPOS>BOND
     1     1     2    1
     2     1    28    1
     3     1    29    1
     4     1    30    1
     5     2    15   ar
     6     2     3   ar
     7     3     4   ar
     8     4     5    1
     9     4    13   ar
    10     5     6    1
    11     6     7    1
    12     6     8    1
    13     6     9    1
    14     8    31    1
    15     8    32    1
    16     8    33    1
    17     9    10    1
    18     9    11    1
    19     9    12    1
    20    13    14   ar
    21    13    34    1
    22    14    15   ar
    23    14    35    1
    24    15    16    1
    25    16    17    2
    26    16    18   am
    27    18    19    1
    28    18    36    1
    29    19    20    1
    30    19    37    1
    31    19    38    1
    32    20    21    1
    33    20    25    1
    34    20    22    1
    35    22    23    1
    36    22    39    1
    37    22    40    1
    38    23    24    1
    39    23    41    1
    40    23    42    1
    41    24    25    1
    42    24    43    1
    43    24    44    1
    44    25    26    2
    45    25    27    2
@<TRIPOS>SUBSTRUCTURE
     1 ZINC000866717058        1 TEMP              0 ****  ****    0 ROOT


##########                                Name:    ZINC000894043060
##########                DOCK_Rotatable_Bonds:                  11
##########                         Heavy_Atoms:                  26
##########                    Molecular_Weight:             396.812
##########                DOCK_Rotatable_Bonds:                  11
##########                       Formal_Charge:          -0.0199999
##########                     HBond_Acceptors:                   9
##########                        HBond_Donors:                   2
##########                         Heavy_Atoms:                  26
##########                          Grid_Score:          -29.480988
##########                     Grid_vdw_energy:          -25.458673
##########                      Grid_es_energy:           -4.022315
##########           Internal_energy_repulsive:           14.494630

@<TRIPOS>MOLECULE
ZINC000894043060
 47 47 1 0 0
SMALL
USER_CHARGES


@<TRIPOS>ATOM
      1 C1         -8.1865    1.9884   67.6682 C.3     1  ZINC000894043060   -0.1700
      2 C2         -9.3932    1.2377   67.1013 C.3     1  ZINC000894043060    0.1000
      3 H3         -9.4715    0.2616   67.5801 H       1  ZINC000894043060    0.1100
      4 N4         -9.2237    1.0607   65.6569 N.am    1  ZINC000894043060   -0.7300
      5 C5         -8.6023   -0.0363   65.1807 C.2     1  ZINC000894043060    0.5200
      6 O6         -8.1820   -0.8763   65.9480 O.2     1  ZINC000894043060   -0.5200
      7 C7         -8.4296   -0.2191   63.6948 C.3     1  ZINC000894043060   -0.1400
      8 C8         -9.6844    0.2734   62.9711 C.3     1  ZINC000894043060   -0.0200
      9 C9         -9.4549    1.6988   62.4648 C.3     1  ZINC000894043060   -0.1400
     10 C10       -10.7583    2.2728   61.9719 C.2     1  ZINC000894043060    0.5200
     11 O11       -11.0080    2.2785   60.7851 O.2     1  ZINC000894043060   -0.5200
     12 N12       -11.6462    2.7798   62.8500 N.am    1  ZINC000894043060   -0.7300
     13 C13       -12.9139    3.3362   62.3710 C.3     1  ZINC000894043060    0.1000
     14 H14       -12.7762    3.7451   61.3701 H       1  ZINC000894043060    0.1200
     15 C15       -13.9723    2.2320   62.3296 C.3     1  ZINC000894043060   -0.1700
     16 C16       -13.3730    4.4474   63.3172 C.3     1  ZINC000894043060    0.2600
     17 F17       -14.5834    4.9793   62.8594 F       1  ZINC000894043060   -0.1900
     18 F18       -13.5505    3.9225   64.6017 F       1  ZINC000894043060   -0.2000
     19 C19        -9.9794   -0.6330   61.8038 C.ar    1  ZINC000894043060   -0.0600
     20 C20       -11.2848   -0.9848   61.5150 C.ar    1  ZINC000894043060   -0.1200
     21 C21       -11.5560   -1.8160   60.4445 C.ar    1  ZINC000894043060   -0.1200
     22 C22       -10.5208   -2.2960   59.6621 C.ar    1  ZINC000894043060   -0.0400
     23 Cl23      -10.8607   -3.3397   58.3171 Cl      1  ZINC000894043060   -0.0800
     24 C24        -9.2146   -1.9435   59.9518 C.ar    1  ZINC000894043060   -0.1100
     25 C25        -8.9451   -1.1077   61.0190 C.ar    1  ZINC000894043060   -0.0400
     26 C26       -10.6667    2.0416   67.3707 C.3     1  ZINC000894043060    0.2600
     27 F27       -10.5661    3.2943   66.7561 F       1  ZINC000894043060   -0.2000
     28 F28       -11.7700    1.3551   66.8526 F       1  ZINC000894043060   -0.1900
     29 H29        -8.1081    2.9645   67.1893 H       1  ZINC000894043060    0.0600
     30 H30        -8.3126    2.1200   68.7428 H       1  ZINC000894043060    0.0800
     31 H31        -7.2792    1.4156   67.4763 H       1  ZINC000894043060    0.0800
     32 H32        -9.5588    1.7332   65.0434 H       1  ZINC000894043060    0.4000
     33 H33        -7.5665    0.3538   63.3561 H       1  ZINC000894043060    0.1000
     34 H34        -8.2740   -1.2752   63.4743 H       1  ZINC000894043060    0.1000
     35 H35       -10.5286    0.2642   63.6606 H       1  ZINC000894043060    0.1000
     36 H36        -9.0705    2.3155   63.2773 H       1  ZINC000894043060    0.1000
     37 H37        -8.7331    1.6825   61.6483 H       1  ZINC000894043060    0.1000
     38 H38       -11.4459    2.7762   63.7991 H       1  ZINC000894043060    0.4000
     39 H39       -14.1100    1.8231   63.3307 H       1  ZINC000894043060    0.0700
     40 H40       -14.9156    2.6460   61.9733 H       1  ZINC000894043060    0.0800
     41 H41       -13.6453    1.4403   61.6556 H       1  ZINC000894043060    0.0700
     42 H42       -12.6189    5.2339   63.3469 H       1  ZINC000894043060    0.1200
     43 H43       -12.0927   -0.6104   62.1260 H       1  ZINC000894043060    0.1200
     44 H44       -12.5757   -2.0911   60.2191 H       1  ZINC000894043060    0.1300
     45 H45        -8.4061   -2.3182   59.3415 H       1  ZINC000894043060    0.1300
     46 H46        -7.9256   -0.8322   61.2450 H       1  ZINC000894043060    0.1300
     47 H47       -10.7926    2.1733   68.4454 H       1  ZINC000894043060    0.1100
@<TRIPOS>BOND
     1     1     2    1
     2     1    29    1
     3     1    30    1
     4     1    31    1
     5     2     3    1
     6     2     4    1
     7     2    26    1
     8     4     5   am
     9     4    32    1
    10     5     6    2
    11     5     7    1
    12     7     8    1
    13     7    33    1
    14     7    34    1
    15     8     9    1
    16     8    19    1
    17     8    35    1
    18     9    10    1
    19     9    36    1
    20     9    37    1
    21    10    11    2
    22    10    12   am
    23    12    13    1
    24    12    38    1
    25    13    14    1
    26    13    15    1
    27    13    16    1
    28    15    39    1
    29    15    40    1
    30    15    41    1
    31    16    17    1
    32    16    18    1
    33    16    42    1
    34    19    25   ar
    35    19    20   ar
    36    20    21   ar
    37    20    43    1
    38    21    22   ar
    39    21    44    1
    40    22    23    1
    41    22    24   ar
    42    24    25   ar
    43    24    45    1
    44    25    46    1
    45    26    27    1
    46    26    28    1
    47    26    47    1
@<TRIPOS>SUBSTRUCTURE
     1 ZINC000894043060        1 TEMP              0 ****  ****    0 ROOT


##########                                Name:    ZINC000265724350
##########                DOCK_Rotatable_Bonds:                   8
##########                         Heavy_Atoms:                  23
##########                    Molecular_Weight:              345.42
##########                DOCK_Rotatable_Bonds:                   8
##########                       Formal_Charge:          -0.0300002
##########                     HBond_Acceptors:                   9
##########                        HBond_Donors:                   2
##########                         Heavy_Atoms:                  23
##########                          Grid_Score:          -29.471479
##########                     Grid_vdw_energy:          -29.263794
##########                      Grid_es_energy:           -0.207685
##########           Internal_energy_repulsive:            6.889141

@<TRIPOS>MOLECULE
ZINC000265724350
 46 47 1 0 0
SMALL
USER_CHARGES


@<TRIPOS>ATOM
      1 C1          3.8502    1.3351   51.8598 C.3     1  ZINC000265724350    0.0800
      2 N2          2.4570    1.7836   51.9230 N.am    1  ZINC000265724350   -1.1100
      3 S3          2.0115    2.9513   53.0094 S.o2    1  ZINC000265724350    2.7200
      4 O4          2.1709    2.3798   54.3006 O.2     1  ZINC000265724350   -0.9300
      5 O5          2.6628    4.1470   52.6029 O.2     1  ZINC000265724350   -0.9300
      6 C6          0.2844    3.2289   52.7978 C.2     1  ZINC000265724350   -0.5600
      7 C7         -0.5581    3.7020   53.7424 C.2     1  ZINC000265724350   -0.0900
      8 C8         -1.8339    3.7707   53.1611 C.2     1  ZINC000265724350   -0.1400
      9 C9         -1.7034    3.3306   51.8751 C.2     1  ZINC000265724350   -0.0200
     10 C10        -2.7813    3.2282   50.8857 C.2     1  ZINC000265724350    0.6000
     11 O11        -2.5204    2.9635   49.7268 O.2     1  ZINC000265724350   -0.5000
     12 N12        -4.0606    3.4272   51.2599 N.am    1  ZINC000265724350   -0.7100
     13 C13        -5.1374    3.3233   50.2720 C.3     1  ZINC000265724350    0.1200
     14 C14        -6.4537    3.0050   50.9840 C.3     1  ZINC000265724350   -0.1100
     15 H15        -6.6026    3.7076   51.8038 H       1  ZINC000265724350    0.0800
     16 C16        -7.6122    3.1259   49.9920 C.3     1  ZINC000265724350   -0.1400
     17 C17        -6.4026    1.5793   51.5369 C.3     1  ZINC000265724350    0.0600
     18 N18        -7.7508    1.1646   51.9471 N.3     1  ZINC000265724350   -0.5300
     19 C19        -8.0670    1.6590   53.2949 C.3     1  ZINC000265724350    0.0100
     20 C20        -9.4988    1.2563   53.6576 C.3     1  ZINC000265724350    0.0600
     21 O21        -9.6289   -0.1644   53.5578 O.3     1  ZINC000265724350   -0.3900
     22 C22        -9.3289   -0.6801   52.2580 C.3     1  ZINC000265724350    0.0600
     23 C23        -7.8954   -0.2970   51.8812 C.3     1  ZINC000265724350    0.0200
     24 O24        -0.4084    3.0114   51.6724 O.3     1  ZINC000265724350   -0.1100
     25 H25         3.9507    0.5687   51.0913 H       1  ZINC000265724350    0.0900
     26 H26         4.4935    2.1806   51.6160 H       1  ZINC000265724350    0.0600
     27 H27         4.1431    0.9222   52.8252 H       1  ZINC000265724350    0.0700
     28 H28         1.7954    1.3965   51.3285 H       1  ZINC000265724350    0.4200
     29 H29        -0.2987    3.9757   54.7544 H       1  ZINC000265724350    0.1800
     30 H30        -2.7426    4.1065   53.6384 H       1  ZINC000265724350    0.1700
     31 H31        -4.2684    3.6394   52.1833 H       1  ZINC000265724350    0.4100
     32 H32        -5.2327    4.2684   49.7375 H       1  ZINC000265724350    0.0800
     33 H33        -4.9055    2.5275   49.5642 H       1  ZINC000265724350    0.0700
     34 H34        -7.6487    4.1416   49.5980 H       1  ZINC000265724350    0.0500
     35 H35        -7.4634    2.4233   49.1721 H       1  ZINC000265724350    0.0600
     36 H36        -8.5500    2.8991   50.4991 H       1  ZINC000265724350    0.0700
     37 H37        -6.0335    0.9034   50.7656 H       1  ZINC000265724350    0.0800
     38 H38        -5.7349    1.5473   52.3980 H       1  ZINC000265724350    0.0400
     39 H39        -7.3732    1.2240   54.0143 H       1  ZINC000265724350    0.0400
     40 H40        -7.9785    2.7453   53.3142 H       1  ZINC000265724350    0.0900
     41 H41        -9.7181    1.5711   54.6779 H       1  ZINC000265724350    0.1000
     42 H42       -10.1967    1.7349   52.9705 H       1  ZINC000265724350    0.0600
     43 H43        -9.4253   -1.7658   52.2661 H       1  ZINC000265724350    0.1000
     44 H44       -10.0218   -0.2579   51.5302 H       1  ZINC000265724350    0.0600
     45 H45        -7.6816   -0.6385   50.8685 H       1  ZINC000265724350    0.0900
     46 H46        -7.1988   -0.7633   52.5779 H       1  ZINC000265724350    0.0400
@<TRIPOS>BOND
     1     1     2    1
     2     1    25    1
     3     1    26    1
     4     1    27    1
     5     2     3   am
     6     2    28    1
     7     3     4    2
     8     3     5    2
     9     3     6    1
    10     6    24    1
    11     6     7    2
    12     7     8    1
    13     7    29    1
    14     8     9    2
    15     8    30    1
    16     9    10    1
    17     9    24    1
    18    10    11    2
    19    10    12   am
    20    12    13    1
    21    12    31    1
    22    13    14    1
    23    13    32    1
    24    13    33    1
    25    14    15    1
    26    14    16    1
    27    14    17    1
    28    16    34    1
    29    16    35    1
    30    16    36    1
    31    17    18    1
    32    17    37    1
    33    17    38    1
    34    18    23    1
    35    18    19    1
    36    19    20    1
    37    19    39    1
    38    19    40    1
    39    20    21    1
    40    20    41    1
    41    20    42    1
    42    21    22    1
    43    22    23    1
    44    22    43    1
    45    22    44    1
    46    23    45    1
    47    23    46    1
@<TRIPOS>SUBSTRUCTURE
     1 ZINC000265724350        1 TEMP              0 ****  ****    0 ROOT


##########                                Name:    ZINC001009116151
##########                DOCK_Rotatable_Bonds:                   6
##########                         Heavy_Atoms:                  25
##########                    Molecular_Weight:             342.481
##########                DOCK_Rotatable_Bonds:                   6
##########                       Formal_Charge:           0.0600006
##########                     HBond_Acceptors:                   4
##########                        HBond_Donors:                   1
##########                         Heavy_Atoms:                  25
##########                          Grid_Score:          -29.463034
##########                     Grid_vdw_energy:          -27.660555
##########                      Grid_es_energy:           -1.802479
##########           Internal_energy_repulsive:            9.998083

@<TRIPOS>MOLECULE
ZINC001009116151
 55 59 1 0 0
SMALL
USER_CHARGES


@<TRIPOS>ATOM
      1 O1          0.2304    4.7259   51.4238 O.2     1  ZINC001009116151   -0.5400
      2 C2          0.2565    3.5651   51.7742 C.2     1  ZINC001009116151    0.5200
      3 N3         -0.7082    3.0835   52.5829 N.am    1  ZINC001009116151   -0.7300
      4 C4         -1.7848    3.9637   53.0436 C.3     1  ZINC001009116151    0.1500
      5 C5         -2.8135    4.1400   51.9249 C.3     1  ZINC001009116151   -0.1200
      6 H6         -2.4367    4.5929   51.0078 H       1  ZINC001009116151    0.1100
      7 C7         -4.2511    4.4671   52.3339 C.3     1  ZINC001009116151   -0.1700
      8 H8         -4.4865    4.6307   53.3854 H       1  ZINC001009116151    0.1200
      9 C9         -5.1761    5.1188   51.2835 C.3     1  ZINC001009116151    0.1300
     10 N10        -5.7671    3.9775   50.5465 N.am    1  ZINC001009116151   -0.6200
     11 C11        -7.0341    3.8446   50.1065 C.2     1  ZINC001009116151    0.5500
     12 O12        -7.3683    2.8403   49.5146 O.2     1  ZINC001009116151   -0.5300
     13 C13        -8.0354    4.9442   50.3502 C.3     1  ZINC001009116151   -0.1200
     14 C14        -9.2078    4.8600   49.3454 C.3     1  ZINC001009116151   -0.0900
     15 C15       -10.2627    4.0421   50.0535 C.2     1  ZINC001009116151   -0.1800
     16 C16       -10.0239    3.9755   51.3350 C.2     1  ZINC001009116151   -0.1500
     17 C17        -8.7700    4.7379   51.6952 C.3     1  ZINC001009116151   -0.0900
     18 C18        -4.6496    3.0157   50.4030 C.3     1  ZINC001009116151    0.1200
     19 C19        -3.8978    3.0692   51.7887 C.3     1  ZINC001009116151   -0.1600
     20 H20        -3.8995    2.1665   52.3995 H       1  ZINC001009116151    0.1300
     21 C21         1.3640    2.6596   51.3003 C.3     1  ZINC001009116151   -0.0700
     22 C22         2.3619    2.4357   52.4382 C.3     1  ZINC001009116151   -0.1100
     23 C23         3.4863    1.5165   51.9570 C.3     1  ZINC001009116151   -0.1100
     24 C24         3.2379    1.1274   50.4983 C.3     1  ZINC001009116151   -0.0900
     25 C25         1.8985    0.3966   50.3863 C.3     1  ZINC001009116151   -0.1100
     26 C26         0.7741    1.3159   50.8675 C.3     1  ZINC001009116151   -0.0900
     27 C27         3.2046    2.3886   49.6327 C.3     1  ZINC001009116151   -0.1100
     28 C28         2.0802    3.3079   50.1139 C.3     1  ZINC001009116151   -0.1000
     29 H29        -0.6896    2.1541   52.8599 H       1  ZINC001009116151    0.4000
     30 H30        -2.2678    3.5215   53.9150 H       1  ZINC001009116151    0.0800
     31 H31        -1.3700    4.9352   53.3122 H       1  ZINC001009116151    0.0700
     32 H32        -5.9572    5.7002   51.7734 H       1  ZINC001009116151    0.0900
     33 H33        -4.5987    5.7497   50.6077 H       1  ZINC001009116151    0.0800
     34 H34        -7.5561    5.9224   50.3122 H       1  ZINC001009116151    0.1100
     35 H35        -9.5876    5.8567   49.1206 H       1  ZINC001009116151    0.0900
     36 H36        -8.8892    4.3590   48.4313 H       1  ZINC001009116151    0.0800
     37 H37       -11.1039    3.5744   49.5637 H       1  ZINC001009116151    0.1300
     38 H38       -10.6417    3.4454   52.0448 H       1  ZINC001009116151    0.1300
     39 H39        -8.1537    4.1539   52.3788 H       1  ZINC001009116151    0.0900
     40 H40        -9.0250    5.6997   52.1401 H       1  ZINC001009116151    0.0900
     41 H41        -5.0333    2.0105   50.2285 H       1  ZINC001009116151    0.0900
     42 H42        -3.9899    3.3181   49.5897 H       1  ZINC001009116151    0.0800
     43 H43         2.7822    3.3931   52.7464 H       1  ZINC001009116151    0.0700
     44 H44         1.8516    1.9740   53.2833 H       1  ZINC001009116151    0.0700
     45 H45         4.4406    2.0372   52.0367 H       1  ZINC001009116151    0.0700
     46 H46         3.5100    0.6180   52.5736 H       1  ZINC001009116151    0.0700
     47 H47         4.0390    0.4725   50.1554 H       1  ZINC001009116151    0.0700
     48 H48         1.7215    0.1194   49.3470 H       1  ZINC001009116151    0.0700
     49 H49         1.9221   -0.5019   51.0030 H       1  ZINC001009116151    0.0700
     50 H50         0.2638    0.8540   51.7127 H       1  ZINC001009116151    0.0700
     51 H51         0.0631    1.4753   50.0569 H       1  ZINC001009116151    0.0700
     52 H52         4.1589    2.9094   49.7124 H       1  ZINC001009116151    0.0700
     53 H53         3.0276    2.1114   48.5934 H       1  ZINC001009116151    0.0700
     54 H54         1.3693    3.4674   49.3031 H       1  ZINC001009116151    0.0700
     55 H55         2.5005    4.2653   50.4221 H       1  ZINC001009116151    0.0700
@<TRIPOS>BOND
     1     1     2    2
     2     2     3   am
     3     2    21    1
     4     3     4    1
     5     3    29    1
     6     4     5    1
     7     4    30    1
     8     4    31    1
     9     5     6    1
    10     5    19    1
    11     5     7    1
    12     7     8    1
    13     7    19    1
    14     7     9    1
    15     9    10    1
    16     9    32    1
    17     9    33    1
    18    10    11   am
    19    10    18    1
    20    11    12    2
    21    11    13    1
    22    13    17    1
    23    13    14    1
    24    13    34    1
    25    14    15    1
    26    14    35    1
    27    14    36    1
    28    15    16    2
    29    15    37    1
    30    16    17    1
    31    16    38    1
    32    17    39    1
    33    17    40    1
    34    18    19    1
    35    18    41    1
    36    18    42    1
    37    19    20    1
    38    21    26    1
    39    21    28    1
    40    21    22    1
    41    22    23    1
    42    22    43    1
    43    22    44    1
    44    23    24    1
    45    23    45    1
    46    23    46    1
    47    24    25    1
    48    24    27    1
    49    24    47    1
    50    25    26    1
    51    25    48    1
    52    25    49    1
    53    26    50    1
    54    26    51    1
    55    27    28    1
    56    27    52    1
    57    27    53    1
    58    28    54    1
    59    28    55    1
@<TRIPOS>SUBSTRUCTURE
     1 ZINC001009116151        1 TEMP              0 ****  ****    0 ROOT


##########                                Name:    ZINC000797321835
##########                DOCK_Rotatable_Bonds:                   4
##########                         Heavy_Atoms:                  22
##########                    Molecular_Weight:             381.253
##########                DOCK_Rotatable_Bonds:                   4
##########                       Formal_Charge:           0.0200001
##########                     HBond_Acceptors:                   7
##########                        HBond_Donors:                   1
##########                         Heavy_Atoms:                  22
##########                          Grid_Score:          -29.456236
##########                     Grid_vdw_energy:          -29.487488
##########                      Grid_es_energy:            0.031251
##########           Internal_energy_repulsive:           19.586193

@<TRIPOS>MOLECULE
ZINC000797321835
 35 37 1 0 0
SMALL
USER_CHARGES


@<TRIPOS>ATOM
      1 C1         -7.8643    3.9710   50.7812 C.3     1  ZINC000797321835    0.1000
      2 N2         -6.4899    3.4646   50.8070 N.am    1  ZINC000797321835   -0.6000
      3 C3         -5.3975    4.2405   50.9143 C.2     1  ZINC000797321835    0.5200
      4 O4         -5.4103    5.4505   50.9962 O.2     1  ZINC000797321835   -0.5200
      5 C5         -4.1500    3.3849   50.9188 C.3     1  ZINC000797321835   -0.1500
      6 C6         -4.6690    1.9592   51.2170 C.3     1  ZINC000797321835   -0.1200
      7 C7         -6.1290    2.0443   50.7252 C.3     1  ZINC000797321835    0.1200
      8 H8         -6.1999    1.7023   49.6928 H       1  ZINC000797321835    0.1100
      9 C9         -7.0264    1.2182   51.6103 C.2     1  ZINC000797321835    0.4900
     10 O10        -6.6627    0.1262   51.9925 O.2     1  ZINC000797321835   -0.4400
     11 N11        -8.2333    1.6930   51.9770 N.am    1  ZINC000797321835   -0.6500
     12 C12        -9.0639    0.9285   52.7961 C.ar    1  ZINC000797321835    0.3000
     13 C13        -9.3403    1.3498   54.0973 C.ar    1  ZINC000797321835   -0.1400
     14 C14       -10.1693    0.5608   54.8739 C.ar    1  ZINC000797321835   -0.0800
     15 C15       -10.6801   -0.6133   54.3048 C.ar    1  ZINC000797321835    0.1100
     16 C16       -11.5704   -1.4914   55.0904 C.2     1  ZINC000797321835   -0.1400
     17 C17       -11.9905   -1.2490   56.3487 C.2     1  ZINC000797321835   -0.0900
     18 C18       -12.8190   -2.2168   56.8765 C.2     1  ZINC000797321835   -0.0900
     19 C19       -13.0787   -3.2455   56.0618 C.2     1  ZINC000797321835   -0.2000
     20 Br20      -14.1753   -4.7246   56.4927 Br      1  ZINC000797321835    0.0200
     21 S21       -12.2527   -3.0114   54.5270 S.3     1  ZINC000797321835    0.1900
     22 N22       -10.3606   -0.9331   53.0554 N.ar    1  ZINC000797321835   -0.1900
     23 N23        -9.5948   -0.1946   52.3373 N.ar    1  ZINC000797321835   -0.2200
     24 H24        -8.2504    4.0262   51.7990 H       1  ZINC000797321835    0.0700
     25 H25        -7.8770    4.9647   50.3334 H       1  ZINC000797321835    0.0800
     26 H26        -8.4882    3.2990   50.1919 H       1  ZINC000797321835    0.0700
     27 H27        -3.6618    3.4172   49.9447 H       1  ZINC000797321835    0.1100
     28 H28        -3.4651    3.7129   51.7008 H       1  ZINC000797321835    0.1100
     29 H29        -4.1076    1.2139   50.6535 H       1  ZINC000797321835    0.1100
     30 H30        -4.6331    1.7466   52.2854 H       1  ZINC000797321835    0.0900
     31 H31        -8.5243    2.5664   51.6714 H       1  ZINC000797321835    0.4200
     32 H32        -8.9192    2.2649   54.4867 H       1  ZINC000797321835    0.1600
     33 H33       -10.4151    0.8408   55.8876 H       1  ZINC000797321835    0.1500
     34 H34       -11.7006   -0.3665   56.8997 H       1  ZINC000797321835    0.1600
     35 H35       -13.2277   -2.1493   57.8738 H       1  ZINC000797321835    0.1600
@<TRIPOS>BOND
     1     1     2    1
     2     1    24    1
     3     1    25    1
     4     1    26    1
     5     2     7    1
     6     2     3   am
     7     3     4    2
     8     3     5    1
     9     5     6    1
    10     5    27    1
    11     5    28    1
    12     6     7    1
    13     6    29    1
    14     6    30    1
    15     7     8    1
    16     7     9    1
    17     9    10    2
    18     9    11   am
    19    11    12    1
    20    11    31    1
    21    12    23   ar
    22    12    13   ar
    23    13    14   ar
    24    13    32    1
    25    14    15   ar
    26    14    33    1
    27    15    16    1
    28    15    22   ar
    29    16    21    1
    30    16    17    2
    31    17    18    1
    32    17    34    1
    33    18    19    2
    34    18    35    1
    35    19    20    1
    36    19    21    1
    37    22    23   ar
@<TRIPOS>SUBSTRUCTURE
     1 ZINC000797321835        1 TEMP              0 ****  ****    0 ROOT


##########                                Name:    ZINC001105194920
##########                DOCK_Rotatable_Bonds:                   8
##########                         Heavy_Atoms:                  25
##########                    Molecular_Weight:             346.392
##########                DOCK_Rotatable_Bonds:                   8
##########                       Formal_Charge:          -0.0100007
##########                     HBond_Acceptors:                  10
##########                        HBond_Donors:                   3
##########                         Heavy_Atoms:                  25
##########                          Grid_Score:          -29.438046
##########                     Grid_vdw_energy:          -27.136591
##########                      Grid_es_energy:           -2.301455
##########           Internal_energy_repulsive:           10.681681

@<TRIPOS>MOLECULE
ZINC001105194920
 47 49 1 0 0
SMALL
USER_CHARGES


@<TRIPOS>ATOM
      1 C1        -11.2311   -1.5972   51.9454 C.3     1  ZINC001105194920    0.0300
      2 O2        -11.5563   -1.1572   53.2656 O.3     1  ZINC001105194920   -0.3900
      3 C3        -12.4243   -2.0425   53.9761 C.3     1  ZINC001105194920    0.0700
      4 C4        -12.7029   -1.4744   55.3691 C.3     1  ZINC001105194920    0.0900
      5 H5        -11.7932   -1.5184   55.9680 H       1  ZINC001105194920    0.0900
      6 C6        -13.1616   -0.0201   55.2445 C.3     1  ZINC001105194920   -0.1800
      7 N7        -13.7560   -2.2660   56.0192 N.3     1  ZINC001105194920   -0.6800
      8 C8        -13.2664   -3.6058   56.3705 C.3     1  ZINC001105194920    0.1400
      9 C9        -12.2242   -3.4918   57.4530 C.2     1  ZINC001105194920   -0.0200
     10 C10       -12.2145   -2.6078   58.4780 C.2     1  ZINC001105194920   -0.0200
     11 N11       -11.0971   -2.8727   59.1937 N.pl3   1  ZINC001105194920   -0.2800
     12 C12       -10.6640   -2.1663   60.4018 C.3     1  ZINC001105194920    0.1000
     13 C13        -9.1870   -1.7337   60.3710 C.3     1  ZINC001105194920    0.1100
     14 N14        -9.6730   -0.4720   59.7797 N.am    1  ZINC001105194920   -0.6300
     15 C15        -9.1249    0.4754   58.9931 C.2     1  ZINC001105194920    0.6200
     16 O16        -7.9704    0.3685   58.6274 O.2     1  ZINC001105194920   -0.5400
     17 C17        -9.9269    1.6436   58.5755 C.ar    1  ZINC001105194920   -0.0600
     18 N18       -10.5973    1.6180   57.4272 N.ar    1  ZINC001105194920   -0.3700
     19 C19       -11.3116    2.6617   57.0578 C.ar    1  ZINC001105194920   -0.0200
     20 C20       -11.3694    3.7915   57.8612 C.ar    1  ZINC001105194920    0.1500
     21 N21       -10.7087    3.8317   59.0038 N.ar    1  ZINC001105194920   -0.5100
     22 C22        -9.9898    2.7849   59.3920 C.ar    1  ZINC001105194920    0.4200
     23 N23        -9.2968    2.8226   60.5880 N.pl3   1  ZINC001105194920   -0.8100
     24 C24       -11.0003   -0.6640   60.3955 C.3     1  ZINC001105194920    0.1100
     25 N25       -10.4803   -3.8522   58.6307 N.2     1  ZINC001105194920   -0.0800
     26 N26       -11.1297   -4.2480   57.5932 N.2     1  ZINC001105194920   -0.2600
     27 H27       -12.1448   -1.6915   51.3585 H       1  ZINC001105194920    0.0400
     28 H28       -10.5692   -0.8713   51.4732 H       1  ZINC001105194920    0.0800
     29 H29       -10.7313   -2.5644   51.9977 H       1  ZINC001105194920    0.0400
     30 H30       -13.3628   -2.1458   53.4314 H       1  ZINC001105194920    0.0600
     31 H31       -11.9493   -3.0190   54.0702 H       1  ZINC001105194920    0.0500
     32 H32       -14.0713    0.0238   54.6455 H       1  ZINC001105194920    0.0700
     33 H33       -13.3601    0.3846   56.2369 H       1  ZINC001105194920    0.0500
     34 H34       -12.3803    0.5672   54.7622 H       1  ZINC001105194920    0.0600
     35 H35       -14.1178   -1.7887   56.8312 H       1  ZINC001105194920    0.3500
     36 H36       -14.0972   -4.2138   56.7284 H       1  ZINC001105194920    0.0900
     37 H37       -12.8261   -4.0740   55.4902 H       1  ZINC001105194920    0.0500
     38 H38       -12.9503   -1.8443   58.6830 H       1  ZINC001105194920    0.1800
     39 H39       -10.9544   -2.6772   61.3199 H       1  ZINC001105194920    0.1500
     40 H40        -8.7437   -1.6136   61.3595 H       1  ZINC001105194920    0.1200
     41 H41        -8.5696   -2.3262   59.6957 H       1  ZINC001105194920    0.1000
     42 H42       -11.8545    2.6378   56.1245 H       1  ZINC001105194920    0.1800
     43 H43       -11.9575    4.6423   57.5503 H       1  ZINC001105194920    0.1800
     44 H44        -9.3962    3.5827   61.1822 H       1  ZINC001105194920    0.4000
     45 H45        -8.7113    2.0889   60.8327 H       1  ZINC001105194920    0.4300
     46 H46       -11.8309   -0.4026   59.7398 H       1  ZINC001105194920    0.1100
     47 H47       -11.0897   -0.2296   61.3912 H       1  ZINC001105194920    0.1200
@<TRIPOS>BOND
     1     1     2    1
     2     1    27    1
     3     1    28    1
     4     1    29    1
     5     2     3    1
     6     3     4    1
     7     3    30    1
     8     3    31    1
     9     4     5    1
    10     4     6    1
    11     4     7    1
    12     6    32    1
    13     6    33    1
    14     6    34    1
    15     7     8    1
    16     7    35    1
    17     8     9    1
    18     8    36    1
    19     8    37    1
    20     9    26    1
    21     9    10    2
    22    10    11    1
    23    10    38    1
    24    11    12    1
    25    11    25    1
    26    12    24    1
    27    12    13    1
    28    12    39    1
    29    13    14    1
    30    13    40    1
    31    13    41    1
    32    14    15   am
    33    14    24    1
    34    15    16    2
    35    15    17    1
    36    17    22   ar
    37    17    18   ar
    38    18    19   ar
    39    19    20   ar
    40    19    42    1
    41    20    21   ar
    42    20    43    1
    43    21    22   ar
    44    22    23    1
    45    23    44    1
    46    23    45    1
    47    24    46    1
    48    24    47    1
    49    25    26    2
@<TRIPOS>SUBSTRUCTURE
     1 ZINC001105194920        1 TEMP              0 ****  ****    0 ROOT


##########                                Name:    ZINC000859202493
##########                DOCK_Rotatable_Bonds:                  11
##########                         Heavy_Atoms:                  25
##########                    Molecular_Weight:             382.404
##########                DOCK_Rotatable_Bonds:                  11
##########                       Formal_Charge:          -0.0200009
##########                     HBond_Acceptors:                  10
##########                        HBond_Donors:                   3
##########                         Heavy_Atoms:                  25
##########                          Grid_Score:          -29.433125
##########                     Grid_vdw_energy:          -30.081207
##########                      Grid_es_energy:            0.648083
##########           Internal_energy_repulsive:           14.210543

@<TRIPOS>MOLECULE
ZINC000859202493
 46 46 1 0 0
SMALL
USER_CHARGES


@<TRIPOS>ATOM
      1 C1        -14.1877   -2.4753   56.1158 C.3     1  ZINC000859202493   -0.1500
      2 C2        -13.7997   -2.8262   57.5536 C.3     1  ZINC000859202493   -0.1200
      3 C3        -12.3434   -2.4274   57.8006 C.3     1  ZINC000859202493   -0.1000
      4 H4        -12.1699   -1.4248   57.4096 H       1  ZINC000859202493    0.0700
      5 C5        -11.4163   -3.4181   57.0935 C.3     1  ZINC000859202493   -0.1600
      6 C6        -12.0577   -2.4450   59.3035 C.3     1  ZINC000859202493   -0.1200
      7 C7        -11.7157   -1.0300   59.7744 C.3     1  ZINC000859202493    0.1600
      8 H8        -11.5432   -1.0369   60.8506 H       1  ZINC000859202493    0.1000
      9 C9        -12.8784   -0.0897   59.4504 C.3     1  ZINC000859202493    0.0500
     10 O10       -12.9154    0.9698   60.4086 O.3     1  ZINC000859202493   -0.5700
     11 N11       -10.5070   -0.5660   59.0889 N.am    1  ZINC000859202493   -1.1000
     12 S12        -9.0523   -0.5722   59.8803 S.o2    1  ZINC000859202493    2.6900
     13 O13        -8.8715   -1.8912   60.3771 O.2     1  ZINC000859202493   -0.9500
     14 O14        -8.1228    0.0672   59.0163 O.2     1  ZINC000859202493   -0.9500
     15 C15        -9.2208    0.4716   61.2899 C.ar    1  ZINC000859202493   -0.6600
     16 C16        -9.6489    1.7771   61.1350 C.ar    1  ZINC000859202493   -0.0300
     17 C17        -9.7820    2.5997   62.2388 C.ar    1  ZINC000859202493   -0.1100
     18 C18        -9.4881    2.1190   63.4996 C.ar    1  ZINC000859202493   -0.0600
     19 C19        -9.0583    0.8078   63.6584 C.ar    1  ZINC000859202493    0.1200
     20 N20        -8.7601    0.3176   64.9346 N.am    1  ZINC000859202493   -0.6500
     21 C21        -7.6858    0.7839   65.6017 C.2     1  ZINC000859202493    0.4800
     22 O22        -6.9775    1.6285   65.0958 O.2     1  ZINC000859202493   -0.4500
     23 C23        -7.3647    0.2559   66.9761 C.3     1  ZINC000859202493    0.4600
     24 F24        -8.0521   -0.9443   67.1869 F       1  ZINC000859202493   -0.1500
     25 F25        -5.9881    0.0289   67.0786 F       1  ZINC000859202493   -0.1600
     26 F26        -7.7559    1.1926   67.9387 F       1  ZINC000859202493   -0.1600
     27 C27        -8.9306   -0.0171   62.5488 C.ar    1  ZINC000859202493   -0.0300
     28 H28       -15.2252   -2.7595   55.9398 H       1  ZINC000859202493    0.0500
     29 H29       -14.0734   -1.4025   55.9601 H       1  ZINC000859202493    0.0500
     30 H30       -13.5410   -3.0139   55.4232 H       1  ZINC000859202493    0.0600
     31 H31       -14.4464   -2.2875   58.2462 H       1  ZINC000859202493    0.0600
     32 H32       -13.9140   -3.8989   57.7093 H       1  ZINC000859202493    0.0600
     33 H33       -10.3788   -3.1339   57.2696 H       1  ZINC000859202493    0.0500
     34 H34       -11.5898   -4.4206   57.4847 H       1  ZINC000859202493    0.0600
     35 H35       -11.6198   -3.4055   56.0229 H       1  ZINC000859202493    0.0600
     36 H36       -12.9387   -2.8023   59.8367 H       1  ZINC000859202493    0.0800
     37 H37       -11.2167   -3.1084   59.5058 H       1  ZINC000859202493    0.0800
     38 H38       -12.7414    0.3273   58.4527 H       1  ZINC000859202493    0.0600
     39 H39       -13.8156   -0.6451   59.4865 H       1  ZINC000859202493    0.0600
     40 H40       -12.9956    0.6694   61.3242 H       1  ZINC000859202493    0.3800
     41 H41       -10.5587   -0.2552   58.1715 H       1  ZINC000859202493    0.4200
     42 H42        -9.8794    2.1554   60.1502 H       1  ZINC000859202493    0.1500
     43 H43       -10.1159    3.6193   62.1146 H       1  ZINC000859202493    0.1400
     44 H44        -9.5919    2.7620   64.3610 H       1  ZINC000859202493    0.1400
     45 H45        -9.3266   -0.3579   65.3393 H       1  ZINC000859202493    0.4200
     46 H46        -8.5967   -1.0371   62.6691 H       1  ZINC000859202493    0.1500
@<TRIPOS>BOND
     1     1     2    1
     2     1    28    1
     3     1    29    1
     4     1    30    1
     5     2     3    1
     6     2    31    1
     7     2    32    1
     8     3     4    1
     9     3     5    1
    10     3     6    1
    11     5    33    1
    12     5    34    1
    13     5    35    1
    14     6     7    1
    15     6    36    1
    16     6    37    1
    17     7     8    1
    18     7     9    1
    19     7    11    1
    20     9    10    1
    21     9    38    1
    22     9    39    1
    23    10    40    1
    24    11    12   am
    25    11    41    1
    26    12    13    2
    27    12    14    2
    28    12    15    1
    29    15    27   ar
    30    15    16   ar
    31    16    17   ar
    32    16    42    1
    33    17    18   ar
    34    17    43    1
    35    18    19   ar
    36    18    44    1
    37    19    20    1
    38    19    27   ar
    39    20    21   am
    40    20    45    1
    41    21    22    2
    42    21    23    1
    43    23    24    1
    44    23    25    1
    45    23    26    1
    46    27    46    1
@<TRIPOS>SUBSTRUCTURE
     1 ZINC000859202493        1 TEMP              0 ****  ****    0 ROOT


##########                                Name:    ZINC001078748831
##########                DOCK_Rotatable_Bonds:                   6
##########                         Heavy_Atoms:                  23
##########                    Molecular_Weight:             333.417
##########                DOCK_Rotatable_Bonds:                   6
##########                       Formal_Charge:           0.0299999
##########                     HBond_Acceptors:                   9
##########                        HBond_Donors:                   2
##########                         Heavy_Atoms:                  23
##########                          Grid_Score:          -29.410393
##########                     Grid_vdw_energy:          -27.356667
##########                      Grid_es_energy:           -2.053726
##########           Internal_energy_repulsive:            5.253364

@<TRIPOS>MOLECULE
ZINC001078748831
 42 45 1 0 0
SMALL
USER_CHARGES


@<TRIPOS>ATOM
      1 C1        -14.6077   -5.0962   56.4379 C.3     1  ZINC001078748831    0.1000
      2 N2        -13.9740   -4.0996   57.3048 N.pl3   1  ZINC001078748831   -0.1400
      3 N3        -14.6035   -3.3710   58.1559 N.2     1  ZINC001078748831   -0.2900
      4 C4        -13.7466   -2.5883   58.7663 C.2     1  ZINC001078748831    0.0400
      5 C5        -12.4871   -2.8934   58.2125 C.2     1  ZINC001078748831   -0.0500
      6 C6        -11.1858   -2.2855   58.5612 C.2     1  ZINC001078748831    0.6200
      7 O7        -10.1516   -2.8414   58.2464 O.2     1  ZINC001078748831   -0.5200
      8 N8        -11.1459   -1.1150   59.2280 N.am    1  ZINC001078748831   -0.7000
      9 C9         -9.8560   -0.5133   59.5751 C.3     1  ZINC001078748831    0.1500
     10 H10        -9.1533   -0.5068   58.7418 H       1  ZINC001078748831    0.1100
     11 C11        -9.2551   -1.0533   60.8857 C.3     1  ZINC001078748831   -0.1800
     12 C12       -10.0155    0.0711   61.6121 C.3     1  ZINC001078748831    0.0800
     13 H13       -11.0200   -0.2122   61.9264 H       1  ZINC001078748831    0.1000
     14 N14        -9.2404    0.7099   62.6841 N.3     1  ZINC001078748831   -0.6700
     15 C15        -9.2119   -0.1327   63.8871 C.3     1  ZINC001078748831    0.1400
     16 C16        -8.3706    0.5318   64.9462 C.2     1  ZINC001078748831    0.0600
     17 N17        -7.9141   -0.0811   66.0029 N.2     1  ZINC001078748831   -0.5700
     18 S18        -7.0935    0.9409   66.8489 S.3     1  ZINC001078748831    0.6800
     19 N19        -7.2677    2.1960   65.9391 N.2     1  ZINC001078748831   -0.5700
     20 C20        -7.9894    1.8588   64.9063 C.2     1  ZINC001078748831    0.0500
     21 C21        -9.9790    0.8354   60.2849 C.3     1  ZINC001078748831   -0.1000
     22 C22        -8.9636    1.9530   60.0435 C.3     1  ZINC001078748831   -0.1000
     23 C23       -10.0096    2.5826   59.1058 C.3     1  ZINC001078748831   -0.1400
     24 C24       -11.0811    1.8282   59.9136 C.3     1  ZINC001078748831   -0.1200
     25 N25       -12.7140   -3.8430   57.3177 N.2     1  ZINC001078748831   -0.2500
     26 H26       -14.6264   -6.0604   56.9460 H       1  ZINC001078748831    0.1000
     27 H27       -15.6276   -4.7850   56.2117 H       1  ZINC001078748831    0.1100
     28 H28       -14.0409   -5.1847   55.5111 H       1  ZINC001078748831    0.1100
     29 H29       -13.9616   -1.8600   59.5342 H       1  ZINC001078748831    0.2100
     30 H30       -11.9711   -0.6709   59.4781 H       1  ZINC001078748831    0.4100
     31 H31        -9.6028   -2.0532   61.1454 H       1  ZINC001078748831    0.0700
     32 H32        -8.1711   -0.9536   60.9419 H       1  ZINC001078748831    0.1000
     33 H33        -8.3056    0.9284   62.3735 H       1  ZINC001078748831    0.3500
     34 H34       -10.2270   -0.2671   64.2607 H       1  ZINC001078748831    0.1000
     35 H35        -8.7842   -1.1044   63.6401 H       1  ZINC001078748831    0.0600
     36 H36        -8.2626    2.5403   64.1143 H       1  ZINC001078748831    0.2000
     37 H37        -8.7535    2.5520   60.9296 H       1  ZINC001078748831    0.1000
     38 H38        -8.0607    1.6206   59.5314 H       1  ZINC001078748831    0.0700
     39 H39       -10.0790    3.6668   59.1953 H       1  ZINC001078748831    0.0700
     40 H40        -9.9265    2.2473   58.0720 H       1  ZINC001078748831    0.0800
     41 H41       -11.8698    1.3961   59.2977 H       1  ZINC001078748831    0.0700
     42 H42       -11.4663    2.3921   60.7632 H       1  ZINC001078748831    0.0900
@<TRIPOS>BOND
     1     1     2    1
     2     1    26    1
     3     1    27    1
     4     1    28    1
     5     2    25    1
     6     2     3    1
     7     3     4    2
     8     4     5    1
     9     4    29    1
    10     5     6    1
    11     5    25    2
    12     6     7    2
    13     6     8   am
    14     8     9    1
    15     8    30    1
    16     9    10    1
    17     9    21    1
    18     9    11    1
    19    11    12    1
    20    11    31    1
    21    11    32    1
    22    12    13    1
    23    12    14    1
    24    12    21    1
    25    14    15    1
    26    14    33    1
    27    15    16    1
    28    15    34    1
    29    15    35    1
    30    16    20    1
    31    16    17    2
    32    17    18    1
    33    18    19    1
    34    19    20    2
    35    20    36    1
    36    21    24    1
    37    21    22    1
    38    22    23    1
    39    22    37    1
    40    22    38    1
    41    23    24    1
    42    23    39    1
    43    23    40    1
    44    24    41    1
    45    24    42    1
@<TRIPOS>SUBSTRUCTURE
     1 ZINC001078748831        1 TEMP              0 ****  ****    0 ROOT


##########                                Name:    ZINC000373864439
##########                DOCK_Rotatable_Bonds:                   7
##########                         Heavy_Atoms:                  23
##########                    Molecular_Weight:              344.45
##########                DOCK_Rotatable_Bonds:                   7
##########                       Formal_Charge:          -0.0300001
##########                     HBond_Acceptors:                   7
##########                        HBond_Donors:                   1
##########                         Heavy_Atoms:                  23
##########                          Grid_Score:          -29.404482
##########                     Grid_vdw_energy:          -24.853621
##########                      Grid_es_energy:           -4.550861
##########           Internal_energy_repulsive:           24.354956

@<TRIPOS>MOLECULE
ZINC000373864439
 48 49 1 0 0
SMALL
USER_CHARGES


@<TRIPOS>ATOM
      1 C1         -7.0962    2.3803   66.7406 C.3     1  ZINC000373864439   -0.1500
      2 C2         -6.7696    0.9424   66.3320 C.3     1  ZINC000373864439   -0.6300
      3 S3         -8.2887   -0.0490   66.3424 S.o2    1  ZINC000373864439    2.6100
      4 O4         -8.0335   -1.3470   66.8614 O.2     1  ZINC000373864439   -0.9500
      5 O5         -9.3856    0.7242   66.8096 O.2     1  ZINC000373864439   -0.9600
      6 N6         -8.6240   -0.3079   64.7414 N.am    1  ZINC000373864439   -1.1200
      7 C7         -8.8573    0.8299   63.8486 C.3     1  ZINC000373864439    0.1100
      8 C8         -9.8873    0.4415   62.7860 C.3     1  ZINC000373864439    0.0500
      9 N9         -9.4862    1.0001   61.4879 N.3     1  ZINC000373864439   -0.5300
     10 C10       -10.4456    2.0144   61.0325 C.3     1  ZINC000373864439    0.0400
     11 C11        -9.9229    2.6757   59.7552 C.3     1  ZINC000373864439   -0.1300
     12 C12        -9.7297    1.6075   58.6754 C.3     1  ZINC000373864439    0.1800
     13 F13       -10.9625    1.0181   58.3751 F       1  ZINC000373864439   -0.2100
     14 C14        -9.1599    2.2437   57.4337 C.ar    1  ZINC000373864439   -0.1500
     15 C15        -8.3874    3.3842   57.5337 C.ar    1  ZINC000373864439   -0.0700
     16 C16        -7.8646    3.9687   56.3946 C.ar    1  ZINC000373864439   -0.1600
     17 C17        -8.1133    3.4131   55.1534 C.ar    1  ZINC000373864439   -0.0700
     18 C18        -8.8851    2.2720   55.0481 C.ar    1  ZINC000373864439   -0.2100
     19 C19        -9.4062    1.6807   56.1896 C.ar    1  ZINC000373864439    0.1400
     20 O20       -10.1657    0.5583   56.0888 O.3     1  ZINC000373864439   -0.3100
     21 C21       -10.8181    0.3267   54.8387 C.3     1  ZINC000373864439    0.0200
     22 C22        -8.7639    0.5382   59.1934 C.3     1  ZINC000373864439   -0.1300
     23 C23        -9.3203   -0.0612   60.4868 C.3     1  ZINC000373864439    0.0600
     24 H24        -7.5261    2.3847   67.7422 H       1  ZINC000373864439    0.0700
     25 H25        -6.1834    2.9760   66.7343 H       1  ZINC000373864439    0.0800
     26 H26        -7.8117    2.8045   66.0362 H       1  ZINC000373864439    0.0700
     27 H27        -6.3397    0.9380   65.3304 H       1  ZINC000373864439    0.1300
     28 H28        -6.0541    0.5182   67.0364 H       1  ZINC000373864439    0.1300
     29 H29        -8.6659   -1.2129   64.3949 H       1  ZINC000373864439    0.4200
     30 H30        -9.2324    1.6745   64.4267 H       1  ZINC000373864439    0.0700
     31 H31        -7.9220    1.1087   63.3632 H       1  ZINC000373864439    0.0900
     32 H32        -9.9420   -0.6447   62.7128 H       1  ZINC000373864439    0.0900
     33 H33       -10.8641    0.8366   63.0653 H       1  ZINC000373864439    0.0400
     34 H34       -11.4059    1.5405   60.8292 H       1  ZINC000373864439    0.0400
     35 H35       -10.5706    2.7702   61.8078 H       1  ZINC000373864439    0.0900
     36 H36       -10.6425    3.4175   59.4087 H       1  ZINC000373864439    0.0800
     37 H37        -8.9691    3.1616   59.9611 H       1  ZINC000373864439    0.1000
     38 H38        -8.1917    3.8203   58.5022 H       1  ZINC000373864439    0.1300
     39 H39        -7.2614    4.8609   56.4748 H       1  ZINC000373864439    0.1300
     40 H40        -7.7042    3.8716   54.2652 H       1  ZINC000373864439    0.1300
     41 H41        -9.0794    1.8385   54.0782 H       1  ZINC000373864439    0.1300
     42 H42       -11.3895   -0.5999   54.8932 H       1  ZINC000373864439    0.1000
     43 H43       -11.4910    1.1561   54.6209 H       1  ZINC000373864439    0.0600
     44 H44       -10.0717    0.2473   54.0484 H       1  ZINC000373864439    0.0600
     45 H45        -8.6556   -0.2474   58.4454 H       1  ZINC000373864439    0.0800
     46 H46        -7.7920    0.9904   59.3904 H       1  ZINC000373864439    0.1000
     47 H47        -8.6280   -0.8130   60.8659 H       1  ZINC000373864439    0.0800
     48 H48       -10.2858   -0.5254   60.2861 H       1  ZINC000373864439    0.0400
@<TRIPOS>BOND
     1     1     2    1
     2     1    24    1
     3     1    25    1
     4     1    26    1
     5     2     3    1
     6     2    27    1
     7     2    28    1
     8     3     4    2
     9     3     5    2
    10     3     6   am
    11     6     7    1
    12     6    29    1
    13     7     8    1
    14     7    30    1
    15     7    31    1
    16     8     9    1
    17     8    32    1
    18     8    33    1
    19     9    23    1
    20     9    10    1
    21    10    11    1
    22    10    34    1
    23    10    35    1
    24    11    12    1
    25    11    36    1
    26    11    37    1
    27    12    13    1
    28    12    14    1
    29    12    22    1
    30    14    19   ar
    31    14    15   ar
    32    15    16   ar
    33    15    38    1
    34    16    17   ar
    35    16    39    1
    36    17    18   ar
    37    17    40    1
    38    18    19   ar
    39    18    41    1
    40    19    20    1
    41    20    21    1
    42    21    42    1
    43    21    43    1
    44    21    44    1
    45    22    23    1
    46    22    45    1
    47    22    46    1
    48    23    47    1
    49    23    48    1
@<TRIPOS>SUBSTRUCTURE
     1 ZINC000373864439        1 TEMP              0 ****  ****    0 ROOT


##########                                Name:    ZINC000673213454
##########                DOCK_Rotatable_Bonds:                   7
##########                         Heavy_Atoms:                  26
##########                    Molecular_Weight:             360.453
##########                DOCK_Rotatable_Bonds:                   7
##########                       Formal_Charge:          -0.0100001
##########                     HBond_Acceptors:                   6
##########                        HBond_Donors:                   1
##########                         Heavy_Atoms:                  26
##########                          Grid_Score:          -29.389635
##########                     Grid_vdw_energy:          -29.293175
##########                      Grid_es_energy:           -0.096461
##########           Internal_energy_repulsive:           20.933260

@<TRIPOS>MOLECULE
ZINC000673213454
 54 56 1 0 0
SMALL
USER_CHARGES


@<TRIPOS>ATOM
      1 C1         -2.1684    2.4317   50.5390 C.3     1  ZINC000673213454   -0.1700
      2 C2         -3.5809    3.0189   50.5058 C.3     1  ZINC000673213454    0.1400
      3 H3         -3.8888    3.1665   49.4707 H       1  ZINC000673213454    0.0900
      4 C4         -3.5920    4.3625   51.2377 C.3     1  ZINC000673213454   -0.1200
      5 C5         -3.2483    4.1428   52.7122 C.3     1  ZINC000673213454   -0.1300
      6 H6         -3.4453    3.1100   52.9992 H       1  ZINC000673213454    0.0800
      7 C7         -4.0527    5.1169   53.6071 C.3     1  ZINC000673213454   -0.1500
      8 C8         -2.9973    5.5352   54.6623 C.3     1  ZINC000673213454    0.0500
      9 O9         -1.7733    5.6159   53.9008 O.3     1  ZINC000673213454   -0.3800
     10 C10        -1.7752    4.5060   52.9825 C.3     1  ZINC000673213454    0.0500
     11 N11        -4.5088    2.0963   51.1645 N.am    1  ZINC000673213454   -0.6900
     12 C12        -5.8310    2.1783   50.9157 C.2     1  ZINC000673213454    0.5100
     13 O13        -6.2525    3.0154   50.1448 O.2     1  ZINC000673213454   -0.5100
     14 C14        -6.7778    1.2383   51.5890 C.2     1  ZINC000673213454    0.5000
     15 O15        -6.8873    0.0977   51.1894 O.2     1  ZINC000673213454   -0.5200
     16 N16        -7.5099    1.6573   52.6402 N.am    1  ZINC000673213454   -0.5800
     17 C17        -7.3550    3.0492   53.1032 C.3     1  ZINC000673213454    0.1100
     18 C18        -8.7161    3.6685   53.4527 C.3     1  ZINC000673213454   -0.1700
     19 C19        -9.7487    3.2338   52.4322 C.3     1  ZINC000673213454    0.0800
     20 O20       -10.3778    2.0463   52.8959 O.3     1  ZINC000673213454   -0.3800
     21 C21        -9.8131    0.8212   52.6042 C.3     1  ZINC000673213454    0.1500
     22 H22        -9.7052    0.7187   51.5244 H       1  ZINC000673213454    0.0600
     23 C23       -10.7013   -0.2784   53.1268 C.ar    1  ZINC000673213454   -0.0800
     24 C24       -10.7175   -1.5105   52.5002 C.ar    1  ZINC000673213454   -0.0900
     25 C25       -11.5321   -2.5191   52.9797 C.ar    1  ZINC000673213454   -0.1300
     26 C26       -12.3305   -2.2957   54.0858 C.ar    1  ZINC000673213454   -0.1200
     27 C27       -12.3137   -1.0640   54.7130 C.ar    1  ZINC000673213454   -0.1300
     28 C28       -11.4957   -0.0567   54.2361 C.ar    1  ZINC000673213454   -0.0900
     29 C29        -8.4251    0.7236   53.2701 C.3     1  ZINC000673213454    0.0700
     30 H30        -1.8605    2.2842   51.5741 H       1  ZINC000673213454    0.0600
     31 H31        -2.1605    1.4746   50.0176 H       1  ZINC000673213454    0.0600
     32 H32        -1.4780    3.1182   50.0490 H       1  ZINC000673213454    0.0700
     33 H33        -2.8547    5.0273   50.7878 H       1  ZINC000673213454    0.0800
     34 H34        -4.5822    4.8113   51.1584 H       1  ZINC000673213454    0.0900
     35 H35        -4.3936    5.9795   53.0346 H       1  ZINC000673213454    0.0800
     36 H36        -4.8934    4.6077   54.0784 H       1  ZINC000673213454    0.0800
     37 H37        -3.2472    6.5056   55.0913 H       1  ZINC000673213454    0.0900
     38 H38        -2.9145    4.7791   55.4431 H       1  ZINC000673213454    0.0600
     39 H39        -1.2564    3.6565   53.4267 H       1  ZINC000673213454    0.0600
     40 H40        -1.2880    4.7946   52.0512 H       1  ZINC000673213454    0.0900
     41 H41        -4.1719    1.4264   51.7798 H       1  ZINC000673213454    0.4100
     42 H42        -6.7177    3.0633   53.9875 H       1  ZINC000673213454    0.0800
     43 H43        -6.8853    3.6382   52.3154 H       1  ZINC000673213454    0.0900
     44 H44        -9.0228    3.3352   54.4441 H       1  ZINC000673213454    0.0800
     45 H45        -8.6332    4.7553   53.4448 H       1  ZINC000673213454    0.0900
     46 H46       -10.4949    4.0189   52.3102 H       1  ZINC000673213454    0.1000
     47 H47        -9.2598    3.0395   51.4776 H       1  ZINC000673213454    0.0500
     48 H48       -10.0938   -1.6850   51.6360 H       1  ZINC000673213454    0.1300
     49 H49       -11.5453   -3.4815   52.4896 H       1  ZINC000673213454    0.1200
     50 H50       -12.9675   -3.0835   54.4600 H       1  ZINC000673213454    0.1200
     51 H51       -12.9375   -0.8893   55.5771 H       1  ZINC000673213454    0.1200
     52 H52       -11.4825    0.9057   54.7262 H       1  ZINC000673213454    0.1300
     53 H53        -8.0396   -0.2899   53.1592 H       1  ZINC000673213454    0.1200
     54 H54        -8.5128    0.9648   54.3294 H       1  ZINC000673213454    0.0800
@<TRIPOS>BOND
     1     1     2    1
     2     1    30    1
     3     1    31    1
     4     1    32    1
     5     2     3    1
     6     2     4    1
     7     2    11    1
     8     4     5    1
     9     4    33    1
    10     4    34    1
    11     5     6    1
    12     5    10    1
    13     5     7    1
    14     7     8    1
    15     7    35    1
    16     7    36    1
    17     8     9    1
    18     8    37    1
    19     8    38    1
    20     9    10    1
    21    10    39    1
    22    10    40    1
    23    11    12   am
    24    11    41    1
    25    12    13    2
    26    12    14    1
    27    14    15    2
    28    14    16   am
    29    16    29    1
    30    16    17    1
    31    17    18    1
    32    17    42    1
    33    17    43    1
    34    18    19    1
    35    18    44    1
    36    18    45    1
    37    19    20    1
    38    19    46    1
    39    19    47    1
    40    20    21    1
    41    21    22    1
    42    21    23    1
    43    21    29    1
    44    23    28   ar
    45    23    24   ar
    46    24    25   ar
    47    24    48    1
    48    25    26   ar
    49    25    49    1
    50    26    27   ar
    51    26    50    1
    52    27    28   ar
    53    27    51    1
    54    28    52    1
    55    29    53    1
    56    29    54    1
@<TRIPOS>SUBSTRUCTURE
     1 ZINC000673213454        1 TEMP              0 ****  ****    0 ROOT


##########                                Name:    ZINC000481838178
##########                DOCK_Rotatable_Bonds:                   6
##########                         Heavy_Atoms:                  29
##########                    Molecular_Weight:             408.524
##########                DOCK_Rotatable_Bonds:                   6
##########                       Formal_Charge:         -0.00999962
##########                     HBond_Acceptors:                   7
##########                        HBond_Donors:                   0
##########                         Heavy_Atoms:                  29
##########                          Grid_Score:          -29.389334
##########                     Grid_vdw_energy:          -29.721970
##########                      Grid_es_energy:            0.332636
##########           Internal_energy_repulsive:            6.870292

@<TRIPOS>MOLECULE
ZINC000481838178
 53 57 1 0 0
SMALL
USER_CHARGES


@<TRIPOS>ATOM
      1 O1        -10.6053   -2.1649   53.1812 O.2     1  ZINC000481838178   -0.5200
      2 C2        -11.0766   -1.1903   53.7280 C.2     1  ZINC000481838178    0.5500
      3 C3        -11.1336    0.1281   53.0003 C.3     1  ZINC000481838178   -0.1500
      4 S4        -10.0114    1.3049   53.7951 S.3     1  ZINC000481838178    0.1000
      5 C5         -8.5762    1.0806   52.7979 C.2     1  ZINC000481838178    0.1600
      6 N6         -8.3697    0.1099   51.9366 N.2     1  ZINC000481838178   -0.2800
      7 N7         -7.2196    0.2474   51.3802 N.2     1  ZINC000481838178   -0.2500
      8 C8         -6.6167    1.3171   51.8515 C.2     1  ZINC000481838178    0.2700
      9 C9         -5.2869    1.8134   51.4660 C.2     1  ZINC000481838178    0.0300
     10 C10        -4.8977    2.1657   50.2082 C.2     1  ZINC000481838178   -0.1300
     11 C11        -3.5549    2.5797   50.3005 C.2     1  ZINC000481838178   -0.2100
     12 C12        -3.1925    2.4623   51.5935 C.2     1  ZINC000481838178   -0.0100
     13 O13        -4.2424    2.0049   52.2958 O.3     1  ZINC000481838178   -0.1700
     14 N14        -7.4710    1.8885   52.7717 N.pl3   1  ZINC000481838178   -0.4100
     15 C15        -7.2503    3.0478   53.5278 C.ar    1  ZINC000481838178    0.1000
     16 C16        -7.2756    4.2933   52.9150 C.ar    1  ZINC000481838178   -0.0800
     17 C17        -7.0575    5.4340   53.6627 C.ar    1  ZINC000481838178   -0.1100
     18 C18        -6.8143    5.3364   55.0204 C.ar    1  ZINC000481838178   -0.1000
     19 C19        -6.7884    4.0972   55.6337 C.ar    1  ZINC000481838178   -0.1100
     20 C20        -7.0114    2.9534   54.8923 C.ar    1  ZINC000481838178   -0.0900
     21 N21       -11.5546   -1.2877   54.9844 N.am    1  ZINC000481838178   -0.6200
     22 C22       -11.5587   -2.5164   55.8227 C.3     1  ZINC000481838178    0.1000
     23 C23       -11.5702   -1.9633   57.2527 C.3     1  ZINC000481838178   -0.1100
     24 H24       -10.5918   -1.5687   57.5269 H       1  ZINC000481838178    0.0900
     25 C25       -12.0997   -2.8940   58.3273 C.3     1  ZINC000481838178   -0.1100
     26 C26       -12.1278   -2.0966   59.6419 C.3     1  ZINC000481838178   -0.1200
     27 C27       -12.9830   -0.8395   59.5197 C.3     1  ZINC000481838178   -0.1200
     28 C28       -12.5413    0.0327   58.3322 C.3     1  ZINC000481838178   -0.1000
     29 C29       -12.6132   -0.8176   57.0850 C.3     1  ZINC000481838178   -0.1100
     30 H30       -13.6078   -1.2528   56.9872 H       1  ZINC000481838178    0.0900
     31 C31       -12.1617   -0.1858   55.7717 C.3     1  ZINC000481838178    0.1200
     32 H32       -10.8330   -0.0163   51.9625 H       1  ZINC000481838178    0.1300
     33 H33       -12.1511    0.5176   53.0330 H       1  ZINC000481838178    0.1300
     34 H34        -5.5021    2.1330   49.3137 H       1  ZINC000481838178    0.1600
     35 H35        -2.9327    2.9257   49.4886 H       1  ZINC000481838178    0.1600
     36 H36        -2.2202    2.7010   51.9987 H       1  ZINC000481838178    0.2100
     37 H37        -7.4652    4.3702   51.8545 H       1  ZINC000481838178    0.1300
     38 H38        -7.0768    6.4031   53.1864 H       1  ZINC000481838178    0.1400
     39 H39        -6.6437    6.2296   55.6030 H       1  ZINC000481838178    0.1300
     40 H40        -6.5978    4.0241   56.6942 H       1  ZINC000481838178    0.1400
     41 H41        -6.9912    1.9859   55.3718 H       1  ZINC000481838178    0.1300
     42 H42       -12.4532   -3.1095   55.6322 H       1  ZINC000481838178    0.0800
     43 H43       -10.6594   -3.1063   55.6454 H       1  ZINC000481838178    0.0800
     44 H44       -13.1067   -3.2231   58.0707 H       1  ZINC000481838178    0.0700
     45 H45       -11.4408   -3.7563   58.4298 H       1  ZINC000481838178    0.0700
     46 H46       -12.5343   -2.7278   60.4321 H       1  ZINC000481838178    0.0600
     47 H47       -11.1098   -1.8099   59.9058 H       1  ZINC000481838178    0.0600
     48 H48       -14.0243   -1.1297   59.3802 H       1  ZINC000481838178    0.0600
     49 H49       -12.8966   -0.2596   60.4386 H       1  ZINC000481838178    0.0700
     50 H50       -13.2053    0.8917   58.2348 H       1  ZINC000481838178    0.0700
     51 H51       -11.5154    0.3699   58.4801 H       1  ZINC000481838178    0.0700
     52 H52       -11.4327    0.6014   55.9637 H       1  ZINC000481838178    0.0700
     53 H53       -13.0195    0.2178   55.2337 H       1  ZINC000481838178    0.0700
@<TRIPOS>BOND
     1     1     2    2
     2     2     3    1
     3     2    21   am
     4     3     4    1
     5     3    32    1
     6     3    33    1
     7     4     5    1
     8     5    14    1
     9     5     6    2
    10     6     7    1
    11     7     8    2
    12     8     9    1
    13     8    14    1
    14     9    13    1
    15     9    10    2
    16    10    11    1
    17    10    34    1
    18    11    12    2
    19    11    35    1
    20    12    13    1
    21    12    36    1
    22    14    15    1
    23    15    20   ar
    24    15    16   ar
    25    16    17   ar
    26    16    37    1
    27    17    18   ar
    28    17    38    1
    29    18    19   ar
    30    18    39    1
    31    19    20   ar
    32    19    40    1
    33    20    41    1
    34    21    31    1
    35    21    22    1
    36    22    23    1
    37    22    42    1
    38    22    43    1
    39    23    24    1
    40    23    29    1
    41    23    25    1
    42    25    26    1
    43    25    44    1
    44    25    45    1
    45    26    27    1
    46    26    46    1
    47    26    47    1
    48    27    28    1
    49    27    48    1
    50    27    49    1
    51    28    29    1
    52    28    50    1
    53    28    51    1
    54    29    30    1
    55    29    31    1
    56    31    52    1
    57    31    53    1
@<TRIPOS>SUBSTRUCTURE
     1 ZINC000481838178        1 TEMP              0 ****  ****    0 ROOT


##########                                Name:    ZINC000655235556
##########                DOCK_Rotatable_Bonds:                   6
##########                         Heavy_Atoms:                  23
##########                    Molecular_Weight:             336.778
##########                DOCK_Rotatable_Bonds:                   6
##########                       Formal_Charge:         -0.00999996
##########                     HBond_Acceptors:                   8
##########                        HBond_Donors:                   2
##########                         Heavy_Atoms:                  23
##########                          Grid_Score:          -29.357819
##########                     Grid_vdw_energy:          -30.027452
##########                      Grid_es_energy:            0.669634
##########           Internal_energy_repulsive:            8.657336

@<TRIPOS>MOLECULE
ZINC000655235556
 40 42 1 0 0
SMALL
USER_CHARGES


@<TRIPOS>ATOM
      1 C1         -9.7211    3.9973   51.8871 C.3     1  ZINC000655235556    0.0200
      2 O2         -8.4980    3.3066   51.6243 O.3     1  ZINC000655235556   -0.2700
      3 C3         -8.5008    1.9613   51.7981 C.ar    1  ZINC000655235556    0.2000
      4 C4         -9.6213    1.3283   52.3130 C.ar    1  ZINC000655235556   -0.2100
      5 C5         -9.6227   -0.0429   52.4891 C.ar    1  ZINC000655235556    0.0300
      6 Cl6       -11.0296   -0.8289   53.1344 Cl      1  ZINC000655235556   -0.0500
      7 C7         -8.5067   -0.7939   52.1526 C.ar    1  ZINC000655235556   -0.1600
      8 C8         -7.3850   -0.1800   51.6397 C.ar    1  ZINC000655235556   -0.0300
      9 C9         -7.3724    1.2043   51.4522 C.ar    1  ZINC000655235556   -0.1700
     10 C10        -6.1748    1.8671   50.9032 C.2     1  ZINC000655235556    0.5700
     11 O11        -6.2236    2.4059   49.8141 O.2     1  ZINC000655235556   -0.5100
     12 N12        -5.0264    1.8758   51.6085 N.am    1  ZINC000655235556   -0.7300
     13 C13        -3.8372    2.5357   51.0639 C.3     1  ZINC000655235556    0.2100
     14 C14        -2.9341    2.9566   52.1945 C.2     1  ZINC000655235556    0.2600
     15 N15        -3.2785    3.0694   53.4516 N.2     1  ZINC000655235556   -0.5100
     16 C16        -2.2301    3.4624   54.1740 C.2     1  ZINC000655235556    0.2200
     17 C17        -2.2321    3.7019   55.6618 C.3     1  ZINC000655235556    0.1700
     18 H18        -2.4543    4.7489   55.8674 H       1  ZINC000655235556    0.1100
     19 C19        -0.8548    3.3327   56.2535 C.3     1  ZINC000655235556   -0.1400
     20 C20        -1.2436    2.6569   57.5968 C.3     1  ZINC000655235556   -0.1500
     21 C21        -2.5702    1.9602   57.2023 C.3     1  ZINC000655235556    0.0500
     22 O22        -3.2122    2.8653   56.2873 O.3     1  ZINC000655235556   -0.3700
     23 N23        -1.1995    3.6059   53.3829 N.2     1  ZINC000655235556   -0.2800
     24 N24        -1.6327    3.2761   52.0882 N.pl3   1  ZINC000655235556   -0.4700
     25 H25       -10.5014    3.6183   51.2271 H       1  ZINC000655235556    0.0600
     26 H26       -10.0133    3.8367   52.9249 H       1  ZINC000655235556    0.0600
     27 H27        -9.5815    5.0637   51.7098 H       1  ZINC000655235556    0.1100
     28 H28       -10.4940    1.9070   52.5772 H       1  ZINC000655235556    0.1500
     29 H29        -8.5167   -1.8646   52.2936 H       1  ZINC000655235556    0.1400
     30 H30        -6.5179   -0.7689   51.3793 H       1  ZINC000655235556    0.1400
     31 H31        -4.9871    1.4450   52.4768 H       1  ZINC000655235556    0.4000
     32 H32        -3.3044    1.8439   50.4115 H       1  ZINC000655235556    0.1000
     33 H33        -4.1384    3.4142   50.4932 H       1  ZINC000655235556    0.1100
     34 H34        -0.3290    2.6322   55.6047 H       1  ZINC000655235556    0.0800
     35 H35        -0.2555    4.2262   56.4280 H       1  ZINC000655235556    0.0900
     36 H36        -0.4925    1.9281   57.9016 H       1  ZINC000655235556    0.0900
     37 H37        -1.4069    3.3998   58.3774 H       1  ZINC000655235556    0.0800
     38 H38        -2.3664    1.0078   56.7131 H       1  ZINC000655235556    0.0600
     39 H39        -3.1940    1.8082   58.0831 H       1  ZINC000655235556    0.0900
     40 H40        -1.1002    3.2837   51.2775 H       1  ZINC000655235556    0.4400
@<TRIPOS>BOND
     1     1     2    1
     2     1    25    1
     3     1    26    1
     4     1    27    1
     5     2     3    1
     6     3     9   ar
     7     3     4   ar
     8     4     5   ar
     9     4    28    1
    10     5     6    1
    11     5     7   ar
    12     7     8   ar
    13     7    29    1
    14     8     9   ar
    15     8    30    1
    16     9    10    1
    17    10    11    2
    18    10    12   am
    19    12    13    1
    20    12    31    1
    21    13    14    1
    22    13    32    1
    23    13    33    1
    24    14    24    1
    25    14    15    2
    26    15    16    1
    27    16    17    1
    28    16    23    2
    29    17    18    1
    30    17    22    1
    31    17    19    1
    32    19    20    1
    33    19    34    1
    34    19    35    1
    35    20    21    1
    36    20    36    1
    37    20    37    1
    38    21    22    1
    39    21    38    1
    40    21    39    1
    41    23    24    1
    42    24    40    1
@<TRIPOS>SUBSTRUCTURE
     1 ZINC000655235556        1 TEMP              0 ****  ****    0 ROOT


##########                                Name:    ZINC000002634904
##########                DOCK_Rotatable_Bonds:                   7
##########                         Heavy_Atoms:                  31
##########                    Molecular_Weight:             423.498
##########                DOCK_Rotatable_Bonds:                   7
##########                       Formal_Charge:        -7.45058e-08
##########                     HBond_Acceptors:                   7
##########                        HBond_Donors:                   1
##########                         Heavy_Atoms:                  31
##########                          Grid_Score:          -29.349051
##########                     Grid_vdw_energy:          -27.996939
##########                      Grid_es_energy:           -1.352112
##########           Internal_energy_repulsive:            5.205975

@<TRIPOS>MOLECULE
ZINC000002634904
 48 51 1 0 0
SMALL
USER_CHARGES


@<TRIPOS>ATOM
      1 N1        -17.3315   -2.2066   60.4540 N.1     1  ZINC000002634904   -0.4100
      2 C2        -16.6892   -2.0997   59.5232 C.1     1  ZINC000002634904    0.2500
      3 C3        -15.8796   -1.9650   58.3498 C.ar    1  ZINC000002634904   -0.0400
      4 C4        -14.7787   -1.1038   58.3533 C.ar    1  ZINC000002634904   -0.0500
      5 C5        -14.0024   -0.9767   57.2232 C.ar    1  ZINC000002634904   -0.1400
      6 C6        -14.3127   -1.7041   56.0788 C.ar    1  ZINC000002634904    0.1700
      7 N7        -13.5237   -1.5728   54.9354 N.am    1  ZINC000002634904   -0.6700
      8 C8        -12.6481   -2.5429   54.6058 C.2     1  ZINC000002634904    0.5400
      9 O9        -12.5457   -3.5300   55.3030 O.2     1  ZINC000002634904   -0.5000
     10 C10       -11.7960   -2.4011   53.3709 C.3     1  ZINC000002634904   -0.1700
     11 S11       -12.3445   -0.9610   52.4214 S.3     1  ZINC000002634904    0.1300
     12 C12       -10.7985   -0.1547   52.1678 C.ar    1  ZINC000002634904    0.2100
     13 N13        -9.7091   -0.8833   51.9517 N.ar    1  ZINC000002634904   -0.2900
     14 N14        -8.5591   -0.3377   51.7615 N.ar    1  ZINC000002634904   -0.1600
     15 C15        -8.4305    0.9848   51.7765 C.ar    1  ZINC000002634904    0.0600
     16 C16        -7.1075    1.6148   51.5573 C.ar    1  ZINC000002634904   -0.0500
     17 C17        -6.6635    1.8777   50.2618 C.ar    1  ZINC000002634904   -0.0800
     18 C18        -5.4304    2.4646   50.0639 C.ar    1  ZINC000002634904   -0.1200
     19 C19        -4.6349    2.7915   51.1475 C.ar    1  ZINC000002634904   -0.1000
     20 C20        -5.0700    2.5329   52.4349 C.ar    1  ZINC000002634904   -0.1200
     21 C21        -6.3039    1.9522   52.6458 C.ar    1  ZINC000002634904   -0.0800
     22 C22        -9.5726    1.7787   52.0039 C.ar    1  ZINC000002634904    0.2300
     23 C23        -9.4748    3.2568   52.0291 C.ar    1  ZINC000002634904   -0.0700
     24 C24        -9.8739    4.0038   50.9213 C.ar    1  ZINC000002634904   -0.0700
     25 C25        -9.7809    5.3802   50.9508 C.ar    1  ZINC000002634904   -0.1200
     26 C26        -9.2929    6.0193   52.0766 C.ar    1  ZINC000002634904   -0.0900
     27 C27        -8.8950    5.2837   53.1785 C.ar    1  ZINC000002634904   -0.1200
     28 C28        -8.9887    3.9070   53.1630 C.ar    1  ZINC000002634904   -0.0700
     29 N29       -10.7419    1.1709   52.1903 N.ar    1  ZINC000002634904   -0.4400
     30 C30       -15.4073   -2.5625   56.0717 C.ar    1  ZINC000002634904   -0.1200
     31 C31       -16.1849   -2.6987   57.1999 C.ar    1  ZINC000002634904   -0.0500
     32 H32       -14.5375   -0.5384   59.2414 H       1  ZINC000002634904    0.1400
     33 H33       -13.1518   -0.3112   57.2251 H       1  ZINC000002634904    0.1400
     34 H34       -13.6056   -0.7834   54.3776 H       1  ZINC000002634904    0.4200
     35 H35       -10.7538   -2.2690   53.6618 H       1  ZINC000002634904    0.1300
     36 H36       -11.8914   -3.2977   52.7586 H       1  ZINC000002634904    0.1300
     37 H37        -7.2833    1.6224   49.4151 H       1  ZINC000002634904    0.1300
     38 H38        -5.0855    2.6688   49.0611 H       1  ZINC000002634904    0.1300
     39 H39        -3.6703    3.2500   50.9876 H       1  ZINC000002634904    0.1300
     40 H40        -4.4446    2.7903   53.2771 H       1  ZINC000002634904    0.1300
     41 H41        -6.6426    1.7511   53.6514 H       1  ZINC000002634904    0.1200
     42 H42       -10.2546    3.5059   50.0417 H       1  ZINC000002634904    0.1300
     43 H43       -10.0894    5.9597   50.0933 H       1  ZINC000002634904    0.1300
     44 H44        -9.2221    7.0968   52.0950 H       1  ZINC000002634904    0.1300
     45 H45        -8.5146    5.7881   54.0544 H       1  ZINC000002634904    0.1300
     46 H46        -8.6778    3.3339   54.0239 H       1  ZINC000002634904    0.1300
     47 H47       -15.6450   -3.1259   55.1816 H       1  ZINC000002634904    0.1500
     48 H48       -17.0343   -3.3656   57.1938 H       1  ZINC000002634904    0.1400
@<TRIPOS>BOND
     1     1     2    3
     2     2     3    1
     3     3    31   ar
     4     3     4   ar
     5     4     5   ar
     6     4    32    1
     7     5     6   ar
     8     5    33    1
     9     6     7    1
    10     6    30   ar
    11     7     8   am
    12     7    34    1
    13     8     9    2
    14     8    10    1
    15    10    11    1
    16    10    35    1
    17    10    36    1
    18    11    12    1
    19    12    29   ar
    20    12    13   ar
    21    13    14   ar
    22    14    15   ar
    23    15    16    1
    24    15    22   ar
    25    16    21   ar
    26    16    17   ar
    27    17    18   ar
    28    17    37    1
    29    18    19   ar
    30    18    38    1
    31    19    20   ar
    32    19    39    1
    33    20    21   ar
    34    20    40    1
    35    21    41    1
    36    22    23    1
    37    22    29   ar
    38    23    28   ar
    39    23    24   ar
    40    24    25   ar
    41    24    42    1
    42    25    26   ar
    43    25    43    1
    44    26    27   ar
    45    26    44    1
    46    27    28   ar
    47    27    45    1
    48    28    46    1
    49    30    31   ar
    50    30    47    1
    51    31    48    1
@<TRIPOS>SUBSTRUCTURE
     1 ZINC000002634904        1 TEMP              0 ****  ****    0 ROOT


##########                                Name:    ZINC001513543414
##########                DOCK_Rotatable_Bonds:                   6
##########                         Heavy_Atoms:                  26
##########                    Molecular_Weight:             364.488
##########                DOCK_Rotatable_Bonds:                   6
##########                       Formal_Charge:         -0.00999974
##########                     HBond_Acceptors:                   7
##########                        HBond_Donors:                   0
##########                         Heavy_Atoms:                  26
##########                          Grid_Score:          -29.342194
##########                     Grid_vdw_energy:          -28.123819
##########                      Grid_es_energy:           -1.218374
##########           Internal_energy_repulsive:           17.640774

@<TRIPOS>MOLECULE
ZINC001513543414
 58 61 1 0 0
SMALL
USER_CHARGES


@<TRIPOS>ATOM
      1 C1         -8.6171    3.9437   54.6360 C.3     1  ZINC001513543414   -0.1500
      2 C2         -8.3241    2.5405   55.1708 C.3     1  ZINC001513543414   -0.1200
      3 C3         -8.3448    2.5632   56.7004 C.3     1  ZINC001513543414    0.1100
      4 C4         -7.1761    3.4011   57.2228 C.3     1  ZINC001513543414   -0.1500
      5 C5         -9.6805    3.1565   57.1975 C.3     1  ZINC001513543414   -0.1500
      6 C6        -10.0017    2.2622   58.4259 C.3     1  ZINC001513543414   -0.1500
      7 C7         -9.4316    0.9005   57.9555 C.3     1  ZINC001513543414    0.0700
      8 H8        -10.1528    0.3882   57.3185 H       1  ZINC001513543414    0.0800
      9 C9         -9.0758    0.0285   59.1613 C.3     1  ZINC001513543414    0.1100
     10 N10       -10.2934   -0.2858   59.9129 N.pl3   1  ZINC001513543414   -0.4600
     11 C11       -10.5774    0.0581   61.2056 C.2     1  ZINC001513543414    0.1900
     12 C12        -9.6885    0.8405   62.1376 C.3     1  ZINC001513543414    0.1800
     13 H13        -9.4180    1.7960   61.6882 H       1  ZINC001513543414    0.1000
     14 C14       -10.3997    1.0669   63.4954 C.3     1  ZINC001513543414   -0.1500
     15 C15        -9.1806    1.2594   64.4383 C.3     1  ZINC001513543414   -0.1500
     16 C16        -8.1329    0.3108   63.8170 C.3     1  ZINC001513543414    0.0500
     17 O17        -8.5077    0.0851   62.4516 O.3     1  ZINC001513543414   -0.3500
     18 N18       -11.7595   -0.4153   61.4817 N.2     1  ZINC001513543414   -0.2600
     19 N19       -12.2379   -1.0302   60.4596 N.2     1  ZINC001513543414   -0.3100
     20 C20       -11.3818   -0.9772   59.4665 C.2     1  ZINC001513543414    0.3400
     21 N21       -11.5479   -1.5271   58.2053 N.3     1  ZINC001513543414   -0.4500
     22 C22       -12.7739   -1.0114   57.5598 C.3     1  ZINC001513543414    0.0500
     23 C23       -13.3012   -2.1945   56.7102 C.3     1  ZINC001513543414   -0.1500
     24 C24       -12.9742   -3.4058   57.6226 C.3     1  ZINC001513543414    0.0700
     25 H25       -13.7486   -3.5395   58.3779 H       1  ZINC001513543414    0.0800
     26 O26       -12.8173   -4.5953   56.8463 O.3     1  ZINC001513543414   -0.3800
     27 C27       -14.0472   -5.1444   56.3691 C.3     1  ZINC001513543414    0.0300
     28 C28       -11.6380   -2.9970   58.2775 C.3     1  ZINC001513543414    0.0600
     29 O29        -8.2494    1.2269   57.2076 O.3     1  ZINC001513543414   -0.3600
     30 H30        -8.6024    3.9275   53.5462 H       1  ZINC001513543414    0.0500
     31 H31        -9.5994    4.2663   54.9812 H       1  ZINC001513543414    0.0500
     32 H32        -7.8584    4.6368   54.9994 H       1  ZINC001513543414    0.0600
     33 H33        -9.0828    1.8473   54.8075 H       1  ZINC001513543414    0.0700
     34 H34        -7.3420    2.2178   54.8255 H       1  ZINC001513543414    0.0600
     35 H35        -7.2698    4.4234   56.8565 H       1  ZINC001513543414    0.0700
     36 H36        -7.1890    3.4032   58.3128 H       1  ZINC001513543414    0.0600
     37 H37        -6.2370    2.9739   56.8714 H       1  ZINC001513543414    0.0700
     38 H38        -9.5552    4.1970   57.4974 H       1  ZINC001513543414    0.0900
     39 H39       -10.4544    3.0617   56.4358 H       1  ZINC001513543414    0.0800
     40 H40        -9.4842    2.6180   59.3169 H       1  ZINC001513543414    0.0800
     41 H41       -11.0765    2.2004   58.5967 H       1  ZINC001513543414    0.0900
     42 H42        -8.6125   -0.8961   58.8170 H       1  ZINC001513543414    0.1000
     43 H43        -8.3798    0.5659   59.8054 H       1  ZINC001513543414    0.1100
     44 H44       -11.0211    1.9620   63.4690 H       1  ZINC001513543414    0.0900
     45 H45       -10.9846    0.1932   63.7830 H       1  ZINC001513543414    0.0900
     46 H46        -8.8314    2.2918   64.4149 H       1  ZINC001513543414    0.0800
     47 H47        -9.4251    0.9544   65.4557 H       1  ZINC001513543414    0.0900
     48 H48        -7.1464    0.7726   63.8567 H       1  ZINC001513543414    0.0700
     49 H49        -8.1222   -0.6344   64.3596 H       1  ZINC001513543414    0.0700
     50 H50       -13.5089   -0.7280   58.3132 H       1  ZINC001513543414    0.0600
     51 H51       -12.5371   -0.1609   56.9205 H       1  ZINC001513543414    0.0900
     52 H52       -14.3752   -2.1086   56.5452 H       1  ZINC001513543414    0.0800
     53 H53       -12.7666   -2.2637   55.7628 H       1  ZINC001513543414    0.0900
     54 H54       -13.8427   -6.0445   55.7894 H       1  ZINC001513543414    0.0900
     55 H55       -14.6861   -5.3949   57.2159 H       1  ZINC001513543414    0.0400
     56 H56       -14.5512   -4.4124   55.7379 H       1  ZINC001513543414    0.0400
     57 H57       -10.8063   -3.4466   57.7351 H       1  ZINC001513543414    0.1000
     58 H58       -11.6217   -3.3189   59.3188 H       1  ZINC001513543414    0.0900
@<TRIPOS>BOND
     1     1     2    1
     2     1    30    1
     3     1    31    1
     4     1    32    1
     5     2     3    1
     6     2    33    1
     7     2    34    1
     8     3    29    1
     9     3     4    1
    10     3     5    1
    11     4    35    1
    12     4    36    1
    13     4    37    1
    14     5     6    1
    15     5    38    1
    16     5    39    1
    17     6     7    1
    18     6    40    1
    19     6    41    1
    20     7     8    1
    21     7     9    1
    22     7    29    1
    23     9    10    1
    24     9    42    1
    25     9    43    1
    26    10    20    1
    27    10    11    1
    28    11    12    1
    29    11    18    2
    30    12    13    1
    31    12    17    1
    32    12    14    1
    33    14    15    1
    34    14    44    1
    35    14    45    1
    36    15    16    1
    37    15    46    1
    38    15    47    1
    39    16    17    1
    40    16    48    1
    41    16    49    1
    42    18    19    1
    43    19    20    2
    44    20    21    1
    45    21    28    1
    46    21    22    1
    47    22    23    1
    48    22    50    1
    49    22    51    1
    50    23    24    1
    51    23    52    1
    52    23    53    1
    53    24    25    1
    54    24    26    1
    55    24    28    1
    56    26    27    1
    57    27    54    1
    58    27    55    1
    59    27    56    1
    60    28    57    1
    61    28    58    1
@<TRIPOS>SUBSTRUCTURE
     1 ZINC001513543414        1 TEMP              0 ****  ****    0 ROOT


##########                                Name:    ZINC001053433946
##########                DOCK_Rotatable_Bonds:                   6
##########                         Heavy_Atoms:                  24
##########                    Molecular_Weight:             337.419
##########                DOCK_Rotatable_Bonds:                   6
##########                       Formal_Charge:               -0.02
##########                     HBond_Acceptors:                   7
##########                        HBond_Donors:                   2
##########                         Heavy_Atoms:                  24
##########                          Grid_Score:          -29.334984
##########                     Grid_vdw_energy:          -28.792992
##########                      Grid_es_energy:           -0.541992
##########           Internal_energy_repulsive:           17.169060

@<TRIPOS>MOLECULE
ZINC001053433946
 51 54 1 0 0
SMALL
USER_CHARGES


@<TRIPOS>ATOM
      1 N1        -11.1662   -3.2311   58.2938 N.am    1  ZINC001053433946   -0.8300
      2 C2        -11.5665   -3.4199   57.0208 C.2     1  ZINC001053433946    0.5600
      3 O3        -10.7442   -3.5795   56.1438 O.2     1  ZINC001053433946   -0.5500
      4 C4        -13.0361   -3.4327   56.6871 C.3     1  ZINC001053433946   -0.1600
      5 H5        -13.6711   -3.9830   57.3814 H       1  ZINC001053433946    0.1400
      6 C6        -13.4244   -3.4524   55.2073 C.3     1  ZINC001053433946   -0.1300
      7 C7        -13.6233   -2.1797   56.0343 C.3     1  ZINC001053433946   -0.1700
      8 H8        -14.6445   -1.9059   56.2987 H       1  ZINC001053433946    0.1400
      9 C9        -12.6881   -1.0272   55.7733 C.2     1  ZINC001053433946    0.5400
     10 O10       -11.9036   -0.6769   56.6294 O.2     1  ZINC001053433946   -0.5200
     11 N11       -12.7236   -0.3856   54.5886 N.am    1  ZINC001053433946   -0.6100
     12 C12       -13.6657   -0.7910   53.5338 C.3     1  ZINC001053433946    0.0700
     13 C13       -12.8839   -1.0137   52.2349 C.3     1  ZINC001053433946    0.0500
     14 O14       -12.1197    0.1585   51.9348 O.3     1  ZINC001053433946   -0.3400
     15 C15       -11.1749    0.5075   52.9427 C.3     1  ZINC001053433946    0.0800
     16 C16        -9.9546   -0.4215   52.9948 C.3     1  ZINC001053433946   -0.0100
     17 N17        -9.3203    0.5279   52.0523 N.3     1  ZINC001053433946   -0.4700
     18 C18        -7.9227    0.7848   52.4248 C.3     1  ZINC001053433946    0.0200
     19 C19        -7.1898    1.4254   51.2443 C.3     1  ZINC001053433946   -0.1200
     20 H20        -7.5169    0.9580   50.3156 H       1  ZINC001053433946    0.0800
     21 C21        -7.5018    2.9244   51.2006 C.3     1  ZINC001053433946   -0.1200
     22 C22        -6.7023    3.5681   50.0636 C.3     1  ZINC001053433946   -0.1600
     23 C23        -5.2120    3.2910   50.2776 C.3     1  ZINC001053433946    0.0600
     24 O24        -4.9955    1.8797   50.3395 O.3     1  ZINC001053433946   -0.3800
     25 C25        -5.6807    1.2295   51.4118 C.3     1  ZINC001053433946    0.0700
     26 C26       -10.2038    1.6188   52.5227 C.3     1  ZINC001053433946    0.0200
     27 C27       -11.8241    0.7479   54.3109 C.3     1  ZINC001053433946    0.1000
     28 H28       -10.2203   -3.2217   58.5083 H       1  ZINC001053433946    0.4000
     29 H29       -11.8239   -3.1007   58.9948 H       1  ZINC001053433946    0.4000
     30 H30       -12.6169   -3.4562   54.4752 H       1  ZINC001053433946    0.1100
     31 H31       -14.3150   -4.0154   54.9282 H       1  ZINC001053433946    0.1200
     32 H32       -14.1634   -1.7163   53.8241 H       1  ZINC001053433946    0.1000
     33 H33       -14.4070   -0.0059   53.3844 H       1  ZINC001053433946    0.0800
     34 H34       -12.2131   -1.8643   52.3554 H       1  ZINC001053433946    0.0600
     35 H35       -13.5807   -1.2120   51.4205 H       1  ZINC001053433946    0.1100
     36 H36        -9.4724   -0.4594   53.9715 H       1  ZINC001053433946    0.0800
     37 H37       -10.1352   -1.4086   52.5692 H       1  ZINC001053433946    0.0900
     38 H38        -7.8928    1.4595   53.2804 H       1  ZINC001053433946    0.0500
     39 H39        -7.4378   -0.1556   52.6865 H       1  ZINC001053433946    0.0800
     40 H40        -8.5676    3.0700   51.0248 H       1  ZINC001053433946    0.0700
     41 H41        -7.2213    3.3830   52.1488 H       1  ZINC001053433946    0.0700
     42 H42        -7.0186    3.1443   49.1105 H       1  ZINC001053433946    0.0700
     43 H43        -6.8758    4.6443   50.0602 H       1  ZINC001053433946    0.0700
     44 H44        -4.6417    3.7102   49.4487 H       1  ZINC001053433946    0.0900
     45 H45        -4.8872    3.7499   51.2114 H       1  ZINC001053433946    0.0500
     46 H46        -5.3628    1.6609   52.3610 H       1  ZINC001053433946    0.0500
     47 H47        -5.4473    0.1649   51.3998 H       1  ZINC001053433946    0.1000
     48 H48       -10.5824    2.2540   51.7220 H       1  ZINC001053433946    0.1000
     49 H49        -9.7954    2.1852   53.3598 H       1  ZINC001053433946    0.0900
     50 H50       -12.3904    1.6791   54.2914 H       1  ZINC001053433946    0.0800
     51 H51       -11.0535    0.8009   55.0800 H       1  ZINC001053433946    0.1000
@<TRIPOS>BOND
     1     1     2   am
     2     1    28    1
     3     1    29    1
     4     2     3    2
     5     2     4    1
     6     4     5    1
     7     4     7    1
     8     4     6    1
     9     6     7    1
    10     6    30    1
    11     6    31    1
    12     7     8    1
    13     7     9    1
    14     9    10    2
    15     9    11   am
    16    11    27    1
    17    11    12    1
    18    12    13    1
    19    12    32    1
    20    12    33    1
    21    13    14    1
    22    13    34    1
    23    13    35    1
    24    14    15    1
    25    15    26    1
    26    15    16    1
    27    15    27    1
    28    16    17    1
    29    16    36    1
    30    16    37    1
    31    17    18    1
    32    17    26    1
    33    18    19    1
    34    18    38    1
    35    18    39    1
    36    19    20    1
    37    19    25    1
    38    19    21    1
    39    21    22    1
    40    21    40    1
    41    21    41    1
    42    22    23    1
    43    22    42    1
    44    22    43    1
    45    23    24    1
    46    23    44    1
    47    23    45    1
    48    24    25    1
    49    25    46    1
    50    25    47    1
    51    26    48    1
    52    26    49    1
    53    27    50    1
    54    27    51    1
@<TRIPOS>SUBSTRUCTURE
     1 ZINC001053433946        1 TEMP              0 ****  ****    0 ROOT


##########                                Name:    ZINC000481050680
##########                DOCK_Rotatable_Bonds:                   7
##########                         Heavy_Atoms:                  29
##########                    Molecular_Weight:              412.46
##########                DOCK_Rotatable_Bonds:                   7
##########                       Formal_Charge:          -0.0199997
##########                     HBond_Acceptors:                   7
##########                        HBond_Donors:                   1
##########                         Heavy_Atoms:                  29
##########                          Grid_Score:          -29.330608
##########                     Grid_vdw_energy:          -29.072300
##########                      Grid_es_energy:           -0.258308
##########           Internal_energy_repulsive:           13.161416

@<TRIPOS>MOLECULE
ZINC000481050680
 47 49 1 0 0
SMALL
USER_CHARGES


@<TRIPOS>ATOM
      1 N1        -14.3202   -0.8466   50.8669 N.1     1  ZINC000481050680   -0.3900
      2 C2        -13.3163   -0.4483   51.2188 C.1     1  ZINC000481050680    0.2500
      3 C3        -12.0507    0.0539   51.6624 C.ar    1  ZINC000481050680    0.0200
      4 C4        -11.1125   -0.8115   52.2281 C.ar    1  ZINC000481050680   -0.0800
      5 C5         -9.8944   -0.3224   52.6534 C.ar    1  ZINC000481050680   -0.0800
      6 C6         -9.6006    1.0225   52.5209 C.ar    1  ZINC000481050680   -0.1000
      7 C7         -8.2679    1.5489   52.9878 C.3     1  ZINC000481050680   -0.5900
      8 S8         -7.0445    1.3589   51.6620 S.o2    1  ZINC000481050680    2.6000
      9 O9         -6.6128    0.0081   51.5717 O.2     1  ZINC000481050680   -0.9300
     10 O10        -7.4477    2.0782   50.5046 O.2     1  ZINC000481050680   -0.9400
     11 N11        -5.7127    2.1776   52.2082 N.am    1  ZINC000481050680   -1.1100
     12 C12        -5.8047    3.6085   52.5087 C.3     1  ZINC000481050680    0.2100
     13 H13        -6.8527    3.9070   52.5373 H       1  ZINC000481050680    0.1000
     14 C14        -5.0769    4.4052   51.4239 C.3     1  ZINC000481050680   -0.0800
     15 C15        -3.6738    3.8778   51.2695 C.ar    1  ZINC000481050680   -0.0900
     16 C16        -3.4231    2.8197   50.4160 C.ar    1  ZINC000481050680   -0.1200
     17 C17        -2.1360    2.3358   50.2743 C.ar    1  ZINC000481050680   -0.1200
     18 C18        -1.0994    2.9104   50.9860 C.ar    1  ZINC000481050680   -0.1200
     19 C19        -1.3500    3.9689   51.8390 C.ar    1  ZINC000481050680   -0.1200
     20 C20        -2.6364    4.4556   51.9773 C.ar    1  ZINC000481050680   -0.1200
     21 C21        -5.1675    3.8829   53.8463 C.ar    1  ZINC000481050680   -0.1300
     22 C22        -4.1517    3.0680   54.3082 C.ar    1  ZINC000481050680   -0.0700
     23 C23        -3.5669    3.3196   55.5357 C.ar    1  ZINC000481050680   -0.1300
     24 C24        -3.9978    4.3860   56.3021 C.ar    1  ZINC000481050680   -0.0900
     25 C25        -5.0141    5.2022   55.8424 C.ar    1  ZINC000481050680   -0.1500
     26 C26        -5.5959    4.9553   54.6107 C.ar    1  ZINC000481050680    0.1100
     27 F27        -6.5893    5.7525   54.1603 F       1  ZINC000481050680   -0.1400
     28 C28       -10.5263    1.8881   51.9599 C.ar    1  ZINC000481050680    0.1200
     29 F29       -10.2322    3.2006   51.8332 F       1  ZINC000481050680   -0.1200
     30 C30       -11.7476    1.4100   51.5257 C.ar    1  ZINC000481050680   -0.1000
     31 H31       -11.3398   -1.8621   52.3329 H       1  ZINC000481050680    0.1500
     32 H32        -9.1686   -0.9916   53.0913 H       1  ZINC000481050680    0.1500
     33 H33        -8.3639    2.6038   53.2451 H       1  ZINC000481050680    0.1500
     34 H34        -7.9432    0.9890   53.8648 H       1  ZINC000481050680    0.1500
     35 H35        -4.8717    1.7096   52.3294 H       1  ZINC000481050680    0.4200
     36 H36        -5.6098    4.3024   50.4786 H       1  ZINC000481050680    0.0900
     37 H37        -5.0408    5.4568   51.7081 H       1  ZINC000481050680    0.0900
     38 H38        -4.2329    2.3709   49.8599 H       1  ZINC000481050680    0.1200
     39 H39        -1.9402    1.5088   49.6080 H       1  ZINC000481050680    0.1200
     40 H40        -0.0939    2.5318   50.8759 H       1  ZINC000481050680    0.1200
     41 H41        -0.5402    4.4175   52.3953 H       1  ZINC000481050680    0.1200
     42 H42        -2.8322    5.2826   52.6437 H       1  ZINC000481050680    0.1200
     43 H43        -3.8147    2.2341   53.7105 H       1  ZINC000481050680    0.1300
     44 H44        -2.7729    2.6821   55.8958 H       1  ZINC000481050680    0.1300
     45 H45        -3.5405    4.5814   57.2609 H       1  ZINC000481050680    0.1300
     46 H46        -5.3511    6.0351   56.4419 H       1  ZINC000481050680    0.1400
     47 H47       -12.4689    2.0845   51.0884 H       1  ZINC000481050680    0.1600
@<TRIPOS>BOND
     1     1     2    3
     2     2     3    1
     3     3    30   ar
     4     3     4   ar
     5     4     5   ar
     6     4    31    1
     7     5     6   ar
     8     5    32    1
     9     6     7    1
    10     6    28   ar
    11     7     8    1
    12     7    33    1
    13     7    34    1
    14     8     9    2
    15     8    10    2
    16     8    11   am
    17    11    12    1
    18    11    35    1
    19    12    13    1
    20    12    14    1
    21    12    21    1
    22    14    15    1
    23    14    36    1
    24    14    37    1
    25    15    20   ar
    26    15    16   ar
    27    16    17   ar
    28    16    38    1
    29    17    18   ar
    30    17    39    1
    31    18    19   ar
    32    18    40    1
    33    19    20   ar
    34    19    41    1
    35    20    42    1
    36    21    26   ar
    37    21    22   ar
    38    22    23   ar
    39    22    43    1
    40    23    24   ar
    41    23    44    1
    42    24    25   ar
    43    24    45    1
    44    25    26   ar
    45    25    46    1
    46    26    27    1
    47    28    29    1
    48    28    30   ar
    49    30    47    1
@<TRIPOS>SUBSTRUCTURE
     1 ZINC000481050680        1 TEMP              0 ****  ****    0 ROOT


##########                                Name:    ZINC001344051361
##########                DOCK_Rotatable_Bonds:                   8
##########                         Heavy_Atoms:                  28
##########                    Molecular_Weight:             379.456
##########                DOCK_Rotatable_Bonds:                   8
##########                       Formal_Charge:          -0.0100006
##########                     HBond_Acceptors:                   5
##########                        HBond_Donors:                   0
##########                         Heavy_Atoms:                  28
##########                          Grid_Score:          -29.312553
##########                     Grid_vdw_energy:          -29.033083
##########                      Grid_es_energy:           -0.279471
##########           Internal_energy_repulsive:           24.090729

@<TRIPOS>MOLECULE
ZINC001344051361
 53 56 1 0 0
SMALL
USER_CHARGES


@<TRIPOS>ATOM
      1 O1        -11.1585   -1.7165   56.7094 O.2     1  ZINC001344051361   -0.4800
      2 C2        -11.9940   -2.4411   57.1959 C.2     1  ZINC001344051361    0.4800
      3 O3        -12.0120   -2.6493   58.5218 O.3     1  ZINC001344051361   -0.3500
      4 C4        -12.3428   -1.5129   59.3630 C.3     1  ZINC001344051361    0.0700
      5 C5        -11.2024   -1.2612   60.3517 C.3     1  ZINC001344051361   -0.1000
      6 H6        -11.0962   -2.1223   61.0113 H       1  ZINC001344051361    0.0900
      7 C7         -9.8979   -1.0433   59.5819 C.3     1  ZINC001344051361   -0.1200
      8 C8         -8.7506   -0.8240   60.5707 C.3     1  ZINC001344051361   -0.1300
      9 C9         -9.0341    0.4284   61.4060 C.3     1  ZINC001344051361    0.0800
     10 N10       -10.3546    0.2885   62.0350 N.am    1  ZINC001344051361   -0.6100
     11 C11       -10.4997    0.4350   63.3669 C.2     1  ZINC001344051361    0.5600
     12 O12       -11.5975    0.3167   63.8752 O.2     1  ZINC001344051361   -0.5300
     13 C13        -9.3237    0.7394   64.2096 C.ar    1  ZINC001344051361   -0.1300
     14 C14        -8.7033   -0.2754   64.9400 C.ar    1  ZINC001344051361   -0.1000
     15 C15        -7.6060    0.0153   65.7241 C.ar    1  ZINC001344051361   -0.1300
     16 C16        -7.1208    1.3094   65.7878 C.ar    1  ZINC001344051361   -0.0900
     17 C17        -7.7314    2.3200   65.0666 C.ar    1  ZINC001344051361   -0.1300
     18 C18        -8.8256    2.0416   64.2738 C.ar    1  ZINC001344051361   -0.0600
     19 C19       -11.5142   -0.0141   61.1850 C.3     1  ZINC001344051361    0.1200
     20 C20       -13.0199   -3.1061   56.3148 C.3     1  ZINC001344051361    0.0200
     21 O21       -12.5923   -3.3976   54.9828 O.3     1  ZINC001344051361   -0.2500
     22 C22       -12.4190   -2.3414   54.1454 C.ar    1  ZINC001344051361    0.1200
     23 C23       -12.8354   -1.0749   54.5291 C.ar    1  ZINC001344051361   -0.2000
     24 C24       -12.6577   -0.0027   53.6762 C.ar    1  ZINC001344051361   -0.0800
     25 C25       -12.0657   -0.1912   52.4409 C.ar    1  ZINC001344051361   -0.1500
     26 C26       -11.6501   -1.4525   52.0561 C.ar    1  ZINC001344051361   -0.0800
     27 C27       -11.8200   -2.5268   52.9079 C.ar    1  ZINC001344051361   -0.1400
     28 C28       -13.9899   -4.0871   56.9763 C.3     1  ZINC001344051361   -0.1700
     29 C29       -14.4850   -2.7143   56.5166 C.3     1  ZINC001344051361   -0.1100
     30 H30       -12.4857   -0.6295   58.7407 H       1  ZINC001344051361    0.0800
     31 H31       -13.2604   -1.7225   59.9125 H       1  ZINC001344051361    0.0800
     32 H32        -9.6868   -1.9199   58.9694 H       1  ZINC001344051361    0.0700
     33 H33        -9.9966   -0.1677   58.9403 H       1  ZINC001344051361    0.0700
     34 H34        -8.6672   -1.6889   61.2288 H       1  ZINC001344051361    0.0700
     35 H35        -7.8179   -0.6922   60.0224 H       1  ZINC001344051361    0.0800
     36 H36        -8.2713    0.5337   62.1773 H       1  ZINC001344051361    0.1100
     37 H37        -9.0280    1.3070   60.7608 H       1  ZINC001344051361    0.0700
     38 H38        -9.0815   -1.2858   64.8917 H       1  ZINC001344051361    0.1400
     39 H39        -7.1249   -0.7690   66.2897 H       1  ZINC001344051361    0.1300
     40 H40        -6.2617    1.5318   66.4034 H       1  ZINC001344051361    0.1300
     41 H41        -7.3479    3.3282   65.1210 H       1  ZINC001344051361    0.1300
     42 H42        -9.3012    2.8313   63.7111 H       1  ZINC001344051361    0.1300
     43 H43       -11.7106    0.8281   60.5215 H       1  ZINC001344051361    0.0700
     44 H44       -12.3871   -0.2005   61.8106 H       1  ZINC001344051361    0.1000
     45 H45       -13.2986   -0.9273   55.4935 H       1  ZINC001344051361    0.1300
     46 H46       -12.9818    0.9834   53.9744 H       1  ZINC001344051361    0.1300
     47 H47       -11.9279    0.6482   51.7755 H       1  ZINC001344051361    0.1300
     48 H48       -11.1883   -1.5972   51.0906 H       1  ZINC001344051361    0.1300
     49 H49       -11.4953   -3.5119   52.6068 H       1  ZINC001344051361    0.1300
     50 H50       -14.3021   -4.9550   56.3956 H       1  ZINC001344051361    0.1200
     51 H51       -13.8862   -4.2514   58.0489 H       1  ZINC001344051361    0.1200
     52 H52       -14.7070   -1.9755   57.2866 H       1  ZINC001344051361    0.1200
     53 H53       -15.1229   -2.6792   55.6334 H       1  ZINC001344051361    0.1200
@<TRIPOS>BOND
     1     1     2    2
     2     2     3    1
     3     2    20    1
     4     3     4    1
     5     4     5    1
     6     4    30    1
     7     4    31    1
     8     5     6    1
     9     5    19    1
    10     5     7    1
    11     7     8    1
    12     7    32    1
    13     7    33    1
    14     8     9    1
    15     8    34    1
    16     8    35    1
    17     9    10    1
    18     9    36    1
    19     9    37    1
    20    10    11   am
    21    10    19    1
    22    11    12    2
    23    11    13    1
    24    13    18   ar
    25    13    14   ar
    26    14    15   ar
    27    14    38    1
    28    15    16   ar
    29    15    39    1
    30    16    17   ar
    31    16    40    1
    32    17    18   ar
    33    17    41    1
    34    18    42    1
    35    19    43    1
    36    19    44    1
    37    20    29    1
    38    20    21    1
    39    20    28    1
    40    21    22    1
    41    22    27   ar
    42    22    23   ar
    43    23    24   ar
    44    23    45    1
    45    24    25   ar
    46    24    46    1
    47    25    26   ar
    48    25    47    1
    49    26    27   ar
    50    26    48    1
    51    27    49    1
    52    28    29    1
    53    28    50    1
    54    28    51    1
    55    29    52    1
    56    29    53    1
@<TRIPOS>SUBSTRUCTURE
     1 ZINC001344051361        1 TEMP              0 ****  ****    0 ROOT


##########                                Name:    ZINC000011157684
##########                DOCK_Rotatable_Bonds:                   7
##########                         Heavy_Atoms:                  25
##########                    Molecular_Weight:             374.866
##########                DOCK_Rotatable_Bonds:                   7
##########                       Formal_Charge:           0.0400001
##########                     HBond_Acceptors:                   6
##########                        HBond_Donors:                   2
##########                         Heavy_Atoms:                  25
##########                          Grid_Score:          -29.311930
##########                     Grid_vdw_energy:          -27.878368
##########                      Grid_es_energy:           -1.433562
##########           Internal_energy_repulsive:            7.267646

@<TRIPOS>MOLECULE
ZINC000011157684
 41 43 1 0 0
SMALL
USER_CHARGES


@<TRIPOS>ATOM
      1 O1         -7.6712    1.1071   50.3802 O.2     1  ZINC000011157684   -0.5200
      2 C2         -7.2421    0.9936   51.5089 C.2     1  ZINC000011157684    0.5100
      3 C3         -7.9095    0.0515   52.4775 C.3     1  ZINC000011157684    0.1000
      4 N4         -9.3325    0.3843   52.5805 N.pl3   1  ZINC000011157684   -0.7300
      5 C5        -10.1642   -0.3549   53.4285 C.ar    1  ZINC000011157684    0.2200
      6 C6        -10.5506   -1.6405   53.0756 C.ar    1  ZINC000011157684   -0.1600
      7 C7        -11.3717   -2.3691   53.9147 C.ar    1  ZINC000011157684   -0.0900
      8 C8        -11.8097   -1.8181   55.1067 C.ar    1  ZINC000011157684    0.0500
      9 F9        -12.6129   -2.5324   55.9251 F       1  ZINC000011157684   -0.1400
     10 C10       -11.4255   -0.5358   55.4618 C.ar    1  ZINC000011157684   -0.0900
     11 C11       -10.6002    0.1948   54.6284 C.ar    1  ZINC000011157684   -0.0900
     12 Cl12      -10.1187    1.8022   55.0736 Cl      1  ZINC000011157684   -0.0500
     13 N13        -6.1651    1.7058   51.8953 N.am    1  ZINC000011157684   -0.7200
     14 C14        -5.5163    2.6215   50.9537 C.3     1  ZINC000011157684    0.2600
     15 H15        -5.5923    2.2184   49.9438 H       1  ZINC000011157684    0.1200
     16 C16        -4.0639    2.7775   51.3244 C.2     1  ZINC000011157684   -0.1900
     17 C17        -3.0801    3.0702   50.4726 C.2     1  ZINC000011157684   -0.1200
     18 C18        -1.8226    3.1633   51.0438 C.2     1  ZINC000011157684   -0.1300
     19 C19        -1.7853    2.9461   52.3594 C.2     1  ZINC000011157684   -0.2100
     20 S20        -3.4082    2.6089   52.9477 S.3     1  ZINC000011157684    0.1100
     21 C21        -6.1964    3.9653   51.0105 C.ar    1  ZINC000011157684   -0.0900
     22 C22        -7.2069    4.2666   50.1168 C.ar    1  ZINC000011157684   -0.1100
     23 C23        -7.8307    5.4992   50.1689 C.ar    1  ZINC000011157684   -0.1100
     24 C24        -7.4443    6.4300   51.1149 C.ar    1  ZINC000011157684   -0.1100
     25 C25        -6.4344    6.1282   52.0092 C.ar    1  ZINC000011157684   -0.1100
     26 C26        -5.8134    4.8941   51.9599 C.ar    1  ZINC000011157684   -0.1000
     27 H27        -7.8008   -0.9730   52.1214 H       1  ZINC000011157684    0.1000
     28 H28        -7.4423    0.1469   53.4577 H       1  ZINC000011157684    0.1000
     29 H29        -9.6980    1.1171   52.0607 H       1  ZINC000011157684    0.4200
     30 H30       -10.2099   -2.0710   52.1455 H       1  ZINC000011157684    0.1400
     31 H31       -11.6724   -3.3694   53.6402 H       1  ZINC000011157684    0.1400
     32 H32       -11.7681   -0.1079   56.3924 H       1  ZINC000011157684    0.1500
     33 H33        -5.8196    1.6120   52.7969 H       1  ZINC000011157684    0.4000
     34 H34        -3.2516    3.2226   49.4173 H       1  ZINC000011157684    0.1400
     35 H35        -0.9386    3.3938   50.4677 H       1  ZINC000011157684    0.1400
     36 H36        -0.8953    2.9765   52.9705 H       1  ZINC000011157684    0.1700
     37 H37        -7.5089    3.5394   49.3776 H       1  ZINC000011157684    0.1200
     38 H38        -8.6198    5.7349   49.4701 H       1  ZINC000011157684    0.1300
     39 H39        -7.9313    7.3932   51.1551 H       1  ZINC000011157684    0.1300
     40 H40        -6.1322    6.8556   52.7481 H       1  ZINC000011157684    0.1300
     41 H41        -5.0245    4.6583   52.6587 H       1  ZINC000011157684    0.1300
@<TRIPOS>BOND
     1     1     2    2
     2     2     3    1
     3     2    13   am
     4     3     4    1
     5     3    27    1
     6     3    28    1
     7     4     5    1
     8     4    29    1
     9     5    11   ar
    10     5     6   ar
    11     6     7   ar
    12     6    30    1
    13     7     8   ar
    14     7    31    1
    15     8     9    1
    16     8    10   ar
    17    10    11   ar
    18    10    32    1
    19    11    12    1
    20    13    14    1
    21    13    33    1
    22    14    15    1
    23    14    16    1
    24    14    21    1
    25    16    20    1
    26    16    17    2
    27    17    18    1
    28    17    34    1
    29    18    19    2
    30    18    35    1
    31    19    20    1
    32    19    36    1
    33    21    26   ar
    34    21    22   ar
    35    22    23   ar
    36    22    37    1
    37    23    24   ar
    38    23    38    1
    39    24    25   ar
    40    24    39    1
    41    25    26   ar
    42    25    40    1
    43    26    41    1
@<TRIPOS>SUBSTRUCTURE
     1 ZINC000011157684        1 TEMP              0 ****  ****    0 ROOT


##########                                Name:    ZINC000373715094
##########                DOCK_Rotatable_Bonds:                   6
##########                         Heavy_Atoms:                  27
##########                    Molecular_Weight:             362.431
##########                DOCK_Rotatable_Bonds:                   6
##########                       Formal_Charge:           0.0299999
##########                     HBond_Acceptors:                   6
##########                        HBond_Donors:                   2
##########                         Heavy_Atoms:                  27
##########                          Grid_Score:          -29.298328
##########                     Grid_vdw_energy:          -28.084101
##########                      Grid_es_energy:           -1.214228
##########           Internal_energy_repulsive:           10.197258

@<TRIPOS>MOLECULE
ZINC000373715094
 49 52 1 0 0
SMALL
USER_CHARGES


@<TRIPOS>ATOM
      1 C1         -6.1510    3.0299   50.3000 C.3     1  ZINC000373715094    0.0900
      2 N2         -7.2298    2.5569   51.1711 N.am    1  ZINC000373715094   -0.6100
      3 C3         -7.5899    1.2684   51.3011 C.2     1  ZINC000373715094    0.5200
      4 O4         -7.0757    0.3408   50.7129 O.2     1  ZINC000373715094   -0.5200
      5 C5         -8.7297    1.1437   52.2880 C.3     1  ZINC000373715094   -0.1600
      6 C6         -8.7259    2.4927   53.0439 C.3     1  ZINC000373715094   -0.1000
      7 H7         -9.7423    2.8189   53.2647 H       1  ZINC000373715094    0.1100
      8 C8         -7.8932    2.4007   54.3242 C.3     1  ZINC000373715094    0.1300
      9 N9         -8.7855    2.3612   55.4853 N.am    1  ZINC000373715094   -0.7300
     10 C10        -8.3021    2.0166   56.6953 C.2     1  ZINC000373715094    0.5200
     11 O11        -7.1281    1.7404   56.8230 O.2     1  ZINC000373715094   -0.5200
     12 C12        -9.2205    1.9742   57.8894 C.3     1  ZINC000373715094   -0.0600
     13 C13        -9.2572    0.5740   58.4453 C.2     1  ZINC000373715094    0.1200
     14 N14        -8.3505    0.0244   59.2017 N.2     1  ZINC000373715094   -0.2300
     15 N15        -8.7226   -1.2848   59.5240 N.pl3   1  ZINC000373715094   -0.5100
     16 C16        -9.9280   -1.5657   58.9355 C.ar    1  ZINC000373715094    0.1300
     17 C17       -10.7539   -2.6865   58.9155 C.ar    1  ZINC000373715094   -0.1400
     18 C18       -11.9275   -2.6541   58.2168 C.ar    1  ZINC000373715094   -0.0700
     19 C19       -12.3109   -1.5138   57.5220 C.ar    1  ZINC000373715094   -0.1600
     20 C20       -11.5215   -0.4002   57.5237 C.ar    1  ZINC000373715094   -0.0400
     21 C21       -10.3182   -0.4062   58.2373 C.ar    1  ZINC000373715094   -0.1600
     22 C22        -8.0521    3.4284   52.0186 C.3     1  ZINC000373715094    0.1800
     23 H23        -7.4288    4.1620   52.5301 H       1  ZINC000373715094    0.1000
     24 C24        -9.0955    4.1239   51.1827 C.ar    1  ZINC000373715094   -0.1000
     25 C25        -9.8684    5.1274   51.7362 C.ar    1  ZINC000373715094   -0.1000
     26 C26       -10.8255    5.7652   50.9694 C.ar    1  ZINC000373715094   -0.1200
     27 C27       -11.0094    5.3998   49.6489 C.ar    1  ZINC000373715094   -0.1100
     28 C28       -10.2357    4.3970   49.0951 C.ar    1  ZINC000373715094   -0.1200
     29 C29        -9.2758    3.7621   49.8607 C.ar    1  ZINC000373715094   -0.1100
     30 H30        -5.2119    3.0325   50.8534 H       1  ZINC000373715094    0.0600
     31 H31        -6.0631    2.3681   49.4384 H       1  ZINC000373715094    0.0800
     32 H32        -6.3753    4.0410   49.9602 H       1  ZINC000373715094    0.0700
     33 H33        -9.6747    1.0029   51.7636 H       1  ZINC000373715094    0.1100
     34 H34        -8.5485    0.3195   52.9778 H       1  ZINC000373715094    0.1100
     35 H35        -7.2883    1.4942   54.2997 H       1  ZINC000373715094    0.0700
     36 H36        -7.2409    3.2709   54.3965 H       1  ZINC000373715094    0.0800
     37 H37        -9.7243    2.5834   55.3834 H       1  ZINC000373715094    0.4000
     38 H38        -8.8541    2.6593   58.6540 H       1  ZINC000373715094    0.1200
     39 H39       -10.2244    2.2713   57.5863 H       1  ZINC000373715094    0.1200
     40 H40        -8.2096   -1.8960   60.0755 H       1  ZINC000373715094    0.4400
     41 H41       -10.4672   -3.5797   59.4509 H       1  ZINC000373715094    0.1300
     42 H42       -12.5649   -3.5259   58.2041 H       1  ZINC000373715094    0.1300
     43 H43       -13.2421   -1.5084   56.9751 H       1  ZINC000373715094    0.1300
     44 H44       -11.8265    0.4824   56.9811 H       1  ZINC000373715094    0.1300
     45 H45        -9.7248    5.4128   52.7678 H       1  ZINC000373715094    0.1200
     46 H46       -11.4299    6.5488   51.4021 H       1  ZINC000373715094    0.1200
     47 H47       -11.7576    5.8978   49.0500 H       1  ZINC000373715094    0.1200
     48 H48       -10.3797    4.1114   48.0637 H       1  ZINC000373715094    0.1300
     49 H49        -8.6714    2.9786   49.4281 H       1  ZINC000373715094    0.1300
@<TRIPOS>BOND
     1     1     2    1
     2     1    30    1
     3     1    31    1
     4     1    32    1
     5     2    22    1
     6     2     3   am
     7     3     4    2
     8     3     5    1
     9     5     6    1
    10     5    33    1
    11     5    34    1
    12     6     7    1
    13     6     8    1
    14     6    22    1
    15     8     9    1
    16     8    35    1
    17     8    36    1
    18     9    10   am
    19     9    37    1
    20    10    11    2
    21    10    12    1
    22    12    13    1
    23    12    38    1
    24    12    39    1
    25    13    21    1
    26    13    14    2
    27    14    15    1
    28    15    16    1
    29    15    40    1
    30    16    21   ar
    31    16    17   ar
    32    17    18   ar
    33    17    41    1
    34    18    19   ar
    35    18    42    1
    36    19    20   ar
    37    19    43    1
    38    20    21   ar
    39    20    44    1
    40    22    23    1
    41    22    24    1
    42    24    29   ar
    43    24    25   ar
    44    25    26   ar
    45    25    45    1
    46    26    27   ar
    47    26    46    1
    48    27    28   ar
    49    27    47    1
    50    28    29   ar
    51    28    48    1
    52    29    49    1
@<TRIPOS>SUBSTRUCTURE
     1 ZINC000373715094        1 TEMP              0 ****  ****    0 ROOT


##########                                Name:    ZINC000194290865
##########                DOCK_Rotatable_Bonds:                   7
##########                         Heavy_Atoms:                  28
##########                    Molecular_Weight:             387.479
##########                DOCK_Rotatable_Bonds:                   7
##########                       Formal_Charge:          -0.0400003
##########                     HBond_Acceptors:                   7
##########                        HBond_Donors:                   0
##########                         Heavy_Atoms:                  28
##########                          Grid_Score:          -29.297644
##########                     Grid_vdw_energy:          -29.545269
##########                      Grid_es_energy:            0.247625
##########           Internal_energy_repulsive:           26.121973

@<TRIPOS>MOLECULE
ZINC000194290865
 57 59 1 0 0
SMALL
USER_CHARGES


@<TRIPOS>ATOM
      1 C1         -3.9203    3.1485   56.3619 C.3     1  ZINC000194290865   -0.1500
      2 C2         -5.0846    4.0159   56.8445 C.3     1  ZINC000194290865    0.0600
      3 O3         -6.3361    3.4551   56.3673 O.3     1  ZINC000194290865   -0.3600
      4 C4         -7.4603    4.1162   56.6846 C.2     1  ZINC000194290865    0.4700
      5 O5         -7.3954    5.1795   57.2549 O.2     1  ZINC000194290865   -0.4900
      6 C6         -8.8036    3.5325   56.3295 C.3     1  ZINC000194290865   -0.0600
      7 C7         -9.3192    2.6545   57.4715 C.3     1  ZINC000194290865   -0.0700
      8 C8         -8.2441    1.6366   57.8578 C.3     1  ZINC000194290865   -0.1700
      9 C9         -9.6486    3.5320   58.6807 C.3     1  ZINC000194290865   -0.1600
     10 C10        -9.8141    4.6605   56.0180 C.3     1  ZINC000194290865   -0.1200
     11 C11        -9.7705    4.7442   54.4714 C.3     1  ZINC000194290865    0.0900
     12 N12        -9.6297    3.3287   54.0585 N.am    1  ZINC000194290865   -0.6100
     13 C13       -10.2247    2.7259   53.0102 C.2     1  ZINC000194290865    0.5800
     14 O14       -10.9690    3.3588   52.2874 O.2     1  ZINC000194290865   -0.5000
     15 C15        -9.9717    1.2929   52.7393 C.ar    1  ZINC000194290865    0.0100
     16 C16        -8.8584    0.8814   51.9815 C.ar    1  ZINC000194290865   -0.2200
     17 C17        -8.6550   -0.4895   51.7474 C.ar    1  ZINC000194290865    0.3000
     18 N18        -9.5050   -1.3789   52.2373 N.ar    1  ZINC000194290865   -0.4700
     19 C19       -10.5536   -1.0240   52.9486 C.ar    1  ZINC000194290865    0.2100
     20 C20       -11.4790   -2.0904   53.4753 C.3     1  ZINC000194290865   -0.1100
     21 C21       -10.8248    0.3051   53.2308 C.ar    1  ZINC000194290865   -0.1800
     22 O22        -7.5338   -0.5974   51.0063 O.3     1  ZINC000194290865   -0.0800
     23 N23        -7.0087    0.6909   50.7579 N.2     1  ZINC000194290865   -0.2600
     24 C24        -7.7632    1.5870   51.3173 C.2     1  ZINC000194290865    0.1600
     25 C25        -7.5501    3.0786   51.2872 C.3     1  ZINC000194290865   -0.0400
     26 C26        -6.0541    3.3779   51.1724 C.3     1  ZINC000194290865   -0.1500
     27 C27        -8.2833    3.6744   50.0838 C.3     1  ZINC000194290865   -0.1400
     28 C28        -8.7042    2.7143   55.0286 C.3     1  ZINC000194290865    0.1200
     29 H29        -4.0361    2.1364   56.7496 H       1  ZINC000194290865    0.0700
     30 H30        -3.9144    3.1218   55.2723 H       1  ZINC000194290865    0.0700
     31 H31        -2.9808    3.5696   56.7201 H       1  ZINC000194290865    0.0800
     32 H32        -5.0905    4.0426   57.9342 H       1  ZINC000194290865    0.0700
     33 H33        -4.9688    5.0280   56.4568 H       1  ZINC000194290865    0.0700
     34 H34       -10.2178    2.1289   57.1484 H       1  ZINC000194290865    0.0900
     35 H35        -8.0094    1.0115   56.9963 H       1  ZINC000194290865    0.0500
     36 H36        -7.3455    2.1624   58.1808 H       1  ZINC000194290865    0.0800
     37 H37        -8.6114    1.0112   58.6713 H       1  ZINC000194290865    0.0600
     38 H38       -10.4145    4.2572   58.4056 H       1  ZINC000194290865    0.0500
     39 H39       -10.0160    2.9066   59.4943 H       1  ZINC000194290865    0.0600
     40 H40        -8.7500    4.0577   59.0037 H       1  ZINC000194290865    0.0800
     41 H41       -10.8124    4.3903   56.3620 H       1  ZINC000194290865    0.0900
     42 H42        -9.4921    5.6012   56.4646 H       1  ZINC000194290865    0.0900
     43 H43       -10.6967    5.1678   54.0829 H       1  ZINC000194290865    0.0900
     44 H44        -8.9113    5.3283   54.1418 H       1  ZINC000194290865    0.0900
     45 H45       -11.1410   -2.4104   54.4609 H       1  ZINC000194290865    0.0900
     46 H46       -12.4899   -1.6896   53.5503 H       1  ZINC000194290865    0.0900
     47 H47       -11.4755   -2.9425   52.7956 H       1  ZINC000194290865    0.0900
     48 H48       -11.6912    0.5735   53.8171 H       1  ZINC000194290865    0.1600
     49 H49        -7.9395    3.5198   52.2048 H       1  ZINC000194290865    0.1100
     50 H50        -5.6647    2.9367   50.2549 H       1  ZINC000194290865    0.0700
     51 H51        -5.8999    4.4567   51.1507 H       1  ZINC000194290865    0.0700
     52 H52        -5.5317    2.9534   52.0298 H       1  ZINC000194290865    0.0600
     53 H53        -9.3491    3.4612   50.1657 H       1  ZINC000194290865    0.0600
     54 H54        -8.1292    4.7532   50.0622 H       1  ZINC000194290865    0.0700
     55 H55        -7.8940    3.2333   49.1663 H       1  ZINC000194290865    0.0600
     56 H56        -7.6850    2.7509   54.6439 H       1  ZINC000194290865    0.0800
     57 H57        -8.9959    1.6810   55.2167 H       1  ZINC000194290865    0.1000
@<TRIPOS>BOND
     1     1     2    1
     2     1    29    1
     3     1    30    1
     4     1    31    1
     5     2     3    1
     6     2    32    1
     7     2    33    1
     8     3     4    1
     9     4     5    2
    10     4     6    1
    11     6    28    1
    12     6     7    1
    13     6    10    1
    14     7     8    1
    15     7     9    1
    16     7    34    1
    17     8    35    1
    18     8    36    1
    19     8    37    1
    20     9    38    1
    21     9    39    1
    22     9    40    1
    23    10    11    1
    24    10    41    1
    25    10    42    1
    26    11    12    1
    27    11    43    1
    28    11    44    1
    29    12    13   am
    30    12    28    1
    31    13    14    2
    32    13    15    1
    33    15    21   ar
    34    15    16   ar
    35    16    24    1
    36    16    17   ar
    37    17    18   ar
    38    17    22    1
    39    18    19   ar
    40    19    20    1
    41    19    21   ar
    42    20    45    1
    43    20    46    1
    44    20    47    1
    45    21    48    1
    46    22    23    1
    47    23    24    2
    48    24    25    1
    49    25    26    1
    50    25    27    1
    51    25    49    1
    52    26    50    1
    53    26    51    1
    54    26    52    1
    55    27    53    1
    56    27    54    1
    57    27    55    1
    58    28    56    1
    59    28    57    1
@<TRIPOS>SUBSTRUCTURE
     1 ZINC000194290865        1 TEMP              0 ****  ****    0 ROOT


##########                                Name:    ZINC001009984555
##########                DOCK_Rotatable_Bonds:                   7
##########                         Heavy_Atoms:                  23
##########                    Molecular_Weight:             338.446
##########                DOCK_Rotatable_Bonds:                   7
##########                       Formal_Charge:           0.0400002
##########                     HBond_Acceptors:                   6
##########                        HBond_Donors:                   1
##########                         Heavy_Atoms:                  23
##########                          Grid_Score:          -29.296158
##########                     Grid_vdw_energy:          -28.680420
##########                      Grid_es_energy:           -0.615738
##########           Internal_energy_repulsive:           10.616213

@<TRIPOS>MOLECULE
ZINC001009984555
 46 47 1 0 0
SMALL
USER_CHARGES


@<TRIPOS>ATOM
      1 C1         -1.9751    2.0424   58.2629 C.3     1  ZINC001009984555   -0.1400
      2 S2         -2.9942    3.4413   57.7197 S.3     1  ZINC001009984555   -0.1800
      3 C3         -3.4820    2.9626   56.0394 C.3     1  ZINC001009984555   -0.1300
      4 C4         -2.3696    3.2962   55.0791 C.2     1  ZINC001009984555    0.5500
      5 O5         -1.2465    3.4875   55.4949 O.2     1  ZINC001009984555   -0.5100
      6 N6         -2.6228    3.3818   53.7580 N.am    1  ZINC001009984555   -0.6100
      7 C7         -3.9368    3.1821   53.1204 C.3     1  ZINC001009984555    0.1000
      8 C8         -3.8536    3.9658   51.7867 C.3     1  ZINC001009984555   -0.1100
      9 H9         -4.0335    5.0289   51.9464 H       1  ZINC001009984555    0.1000
     10 C10        -4.8289    3.3965   50.7543 C.3     1  ZINC001009984555    0.1300
     11 N11        -6.1061    3.0928   51.4047 N.am    1  ZINC001009984555   -0.7300
     12 C12        -7.0398    2.3721   50.7526 C.2     1  ZINC001009984555    0.5600
     13 O13        -6.8216    1.9729   49.6254 O.2     1  ZINC001009984555   -0.5200
     14 C14        -8.3294    2.0670   51.4082 C.ar    1  ZINC001009984555   -0.1200
     15 C15        -9.3466    3.0222   51.4313 C.ar    1  ZINC001009984555   -0.0900
     16 C16       -10.5483    2.7325   52.0445 C.ar    1  ZINC001009984555   -0.1000
     17 C17       -10.7470    1.4985   52.6365 C.ar    1  ZINC001009984555   -0.1200
     18 C18        -9.7417    0.5448   52.6177 C.ar    1  ZINC001009984555    0.0900
     19 F19        -9.9426   -0.6586   53.1980 F       1  ZINC001009984555   -0.1300
     20 C20        -8.5363    0.8208   52.0013 C.ar    1  ZINC001009984555   -0.0500
     21 C21        -7.4432   -0.2164   51.9809 C.3     1  ZINC001009984555   -0.1200
     22 C22        -2.3828    3.7077   51.3650 C.3     1  ZINC001009984555   -0.1200
     23 C23        -1.6355    3.6962   52.7151 C.3     1  ZINC001009984555    0.1400
     24 H24        -0.8599    2.9303   52.7029 H       1  ZINC001009984555    0.0800
     25 C25        -1.0082    5.0674   52.9743 C.3     1  ZINC001009984555   -0.1700
     26 H26        -1.1216    1.9334   57.5940 H       1  ZINC001009984555    0.0800
     27 H27        -1.6207    2.2235   59.2776 H       1  ZINC001009984555    0.1100
     28 H28        -2.5708    1.1298   58.2436 H       1  ZINC001009984555    0.0800
     29 H29        -3.6786    1.8908   56.0096 H       1  ZINC001009984555    0.1100
     30 H30        -4.3832    3.5053   55.7541 H       1  ZINC001009984555    0.1100
     31 H31        -4.1081    2.1229   52.9279 H       1  ZINC001009984555    0.0800
     32 H32        -4.7294    3.5872   53.7496 H       1  ZINC001009984555    0.0800
     33 H33        -4.9891    4.1291   49.9632 H       1  ZINC001009984555    0.0800
     34 H34        -4.4132    2.4844   50.3262 H       1  ZINC001009984555    0.0800
     35 H35        -6.2797    3.4103   52.3046 H       1  ZINC001009984555    0.4000
     36 H36        -9.1934    3.9868   50.9703 H       1  ZINC001009984555    0.1300
     37 H37       -11.3357    3.4716   52.0625 H       1  ZINC001009984555    0.1400
     38 H38       -11.6893    1.2774   53.1157 H       1  ZINC001009984555    0.1400
     39 H39        -7.4725   -0.7564   51.0345 H       1  ZINC001009984555    0.0800
     40 H40        -6.4756    0.2732   52.0901 H       1  ZINC001009984555    0.1000
     41 H41        -7.5911   -0.9164   52.8033 H       1  ZINC001009984555    0.0600
     42 H42        -2.2895    2.7462   50.8601 H       1  ZINC001009984555    0.0900
     43 H43        -2.0163    4.5148   50.7307 H       1  ZINC001009984555    0.0900
     44 H44        -1.7911    5.8254   53.0031 H       1  ZINC001009984555    0.0600
     45 H45        -0.4824    5.0517   53.9289 H       1  ZINC001009984555    0.0700
     46 H46        -0.3046    5.3019   52.1756 H       1  ZINC001009984555    0.0700
@<TRIPOS>BOND
     1     1     2    1
     2     1    26    1
     3     1    27    1
     4     1    28    1
     5     2     3    1
     6     3     4    1
     7     3    29    1
     8     3    30    1
     9     4     5    2
    10     4     6   am
    11     6    23    1
    12     6     7    1
    13     7     8    1
    14     7    31    1
    15     7    32    1
    16     8     9    1
    17     8    10    1
    18     8    22    1
    19    10    11    1
    20    10    33    1
    21    10    34    1
    22    11    12   am
    23    11    35    1
    24    12    13    2
    25    12    14    1
    26    14    20   ar
    27    14    15   ar
    28    15    16   ar
    29    15    36    1
    30    16    17   ar
    31    16    37    1
    32    17    18   ar
    33    17    38    1
    34    18    19    1
    35    18    20   ar
    36    20    21    1
    37    21    39    1
    38    21    40    1
    39    21    41    1
    40    22    23    1
    41    22    42    1
    42    22    43    1
    43    23    24    1
    44    23    25    1
    45    25    44    1
    46    25    45    1
    47    25    46    1
@<TRIPOS>SUBSTRUCTURE
     1 ZINC001009984555        1 TEMP              0 ****  ****    0 ROOT


##########                                Name:    ZINC001011676549
##########                DOCK_Rotatable_Bonds:                   6
##########                         Heavy_Atoms:                  24
##########                    Molecular_Weight:             330.387
##########                DOCK_Rotatable_Bonds:                   6
##########                       Formal_Charge:        -1.49012e-07
##########                     HBond_Acceptors:                   7
##########                        HBond_Donors:                   1
##########                         Heavy_Atoms:                  24
##########                          Grid_Score:          -29.282202
##########                     Grid_vdw_energy:          -27.049452
##########                      Grid_es_energy:           -2.232750
##########           Internal_energy_repulsive:           13.767167

@<TRIPOS>MOLECULE
ZINC001011676549
 46 48 1 0 0
SMALL
USER_CHARGES


@<TRIPOS>ATOM
      1 C1         -9.1855   -1.8244   60.2423 C.3     1  ZINC001011676549   -0.1700
      2 C2        -10.6558   -1.9648   60.6417 C.3     1  ZINC001011676549    0.1300
      3 H3        -10.7964   -2.8758   61.2234 H       1  ZINC001011676549    0.0900
      4 C4        -11.0935   -0.7395   61.4715 C.3     1  ZINC001011676549    0.1400
      5 H5        -11.8033   -1.0315   62.2455 H       1  ZINC001011676549    0.1100
      6 N6         -9.9312   -0.0714   62.0621 N.am    1  ZINC001011676549   -0.7200
      7 C7        -10.1050    0.8695   63.0114 C.2     1  ZINC001011676549    0.5200
      8 O8        -11.2237    1.1640   63.3756 O.2     1  ZINC001011676549   -0.5300
      9 C9         -8.9093    1.5555   63.6201 C.3     1  ZINC001011676549   -0.0900
     10 C10        -8.5186    0.8489   64.8926 C.ar    1  ZINC001011676549   -0.1800
     11 C11        -8.1900    1.5676   66.0312 C.ar    1  ZINC001011676549    0.1600
     12 N12        -7.8519    0.9129   67.1304 N.ar    1  ZINC001011676549   -0.5200
     13 C13        -7.8255   -0.4047   67.1503 C.ar    1  ZINC001011676549    0.3000
     14 N14        -8.1316   -1.1207   66.0872 N.ar    1  ZINC001011676549   -0.5200
     15 C15        -8.4849   -0.5352   64.9542 C.ar    1  ZINC001011676549    0.1600
     16 C16       -11.7763    0.1694   60.4155 C.3     1  ZINC001011676549   -0.1400
     17 C17       -12.4519   -0.8770   59.4946 C.3     1  ZINC001011676549    0.1000
     18 N18       -11.4992   -2.0048   59.4382 N.am    1  ZINC001011676549   -0.6100
     19 C19       -11.4166   -2.9144   58.4470 C.2     1  ZINC001011676549    0.5800
     20 O20       -10.5898   -3.8044   58.5057 O.2     1  ZINC001011676549   -0.5300
     21 C21       -12.3264   -2.8306   57.2941 C.2     1  ZINC001011676549   -0.1400
     22 C22       -13.6177   -3.0327   57.4846 C.2     1  ZINC001011676549   -0.1500
     23 C23       -14.6192   -2.9758   56.3658 C.3     1  ZINC001011676549    0.0900
     24 O24       -14.0443   -2.3370   55.2243 O.3     1  ZINC001011676549   -0.3800
     25 C25       -12.7725   -2.8837   54.8552 C.3     1  ZINC001011676549    0.0600
     26 C26       -11.7552   -2.5117   55.9396 C.3     1  ZINC001011676549   -0.1100
     27 H27        -9.0546   -0.9182   59.6508 H       1  ZINC001011676549    0.0600
     28 H28        -8.5694   -1.7647   61.1395 H       1  ZINC001011676549    0.0700
     29 H29        -8.8850   -2.6901   59.6522 H       1  ZINC001011676549    0.0800
     30 H30        -9.0366   -0.3060   61.7699 H       1  ZINC001011676549    0.4100
     31 H31        -8.0765    1.5253   62.9175 H       1  ZINC001011676549    0.1100
     32 H32        -9.1597    2.5927   63.8427 H       1  ZINC001011676549    0.1100
     33 H33        -8.2093    2.6474   66.0215 H       1  ZINC001011676549    0.1700
     34 H34        -7.5452   -0.9110   68.0623 H       1  ZINC001011676549    0.2000
     35 H35        -8.7350   -1.1279   64.0867 H       1  ZINC001011676549    0.1700
     36 H36       -12.5187    0.8184   60.8800 H       1  ZINC001011676549    0.0900
     37 H37       -11.0376    0.7537   59.8668 H       1  ZINC001011676549    0.0800
     38 H38       -13.3995   -1.2039   59.9230 H       1  ZINC001011676549    0.0800
     39 H39       -12.6080   -0.4617   58.4990 H       1  ZINC001011676549    0.0800
     40 H40       -13.9674   -3.2476   58.4836 H       1  ZINC001011676549    0.1200
     41 H41       -14.9214   -3.9886   56.0992 H       1  ZINC001011676549    0.0700
     42 H42       -15.4942   -2.4136   56.6922 H       1  ZINC001011676549    0.1100
     43 H43       -12.8490   -3.9681   54.7760 H       1  ZINC001011676549    0.0600
     44 H44       -12.4571   -2.4650   53.8995 H       1  ZINC001011676549    0.1000
     45 H45       -11.5291   -1.4474   55.8756 H       1  ZINC001011676549    0.0900
     46 H46       -10.8407   -3.0862   55.7919 H       1  ZINC001011676549    0.0900
@<TRIPOS>BOND
     1     1     2    1
     2     1    27    1
     3     1    28    1
     4     1    29    1
     5     2     3    1
     6     2    18    1
     7     2     4    1
     8     4     5    1
     9     4     6    1
    10     4    16    1
    11     6     7   am
    12     6    30    1
    13     7     8    2
    14     7     9    1
    15     9    10    1
    16     9    31    1
    17     9    32    1
    18    10    15   ar
    19    10    11   ar
    20    11    12   ar
    21    11    33    1
    22    12    13   ar
    23    13    14   ar
    24    13    34    1
    25    14    15   ar
    26    15    35    1
    27    16    17    1
    28    16    36    1
    29    16    37    1
    30    17    18    1
    31    17    38    1
    32    17    39    1
    33    18    19   am
    34    19    20    2
    35    19    21    1
    36    21    26    1
    37    21    22    2
    38    22    23    1
    39    22    40    1
    40    23    24    1
    41    23    41    1
    42    23    42    1
    43    24    25    1
    44    25    26    1
    45    25    43    1
    46    25    44    1
    47    26    45    1
    48    26    46    1
@<TRIPOS>SUBSTRUCTURE
     1 ZINC001011676549        1 TEMP              0 ****  ****    0 ROOT


##########                                Name:    ZINC000080099940
##########                DOCK_Rotatable_Bonds:                   4
##########                         Heavy_Atoms:                  26
##########                    Molecular_Weight:             343.388
##########                DOCK_Rotatable_Bonds:                   4
##########                       Formal_Charge:        -3.42727e-07
##########                     HBond_Acceptors:                   6
##########                        HBond_Donors:                   1
##########                         Heavy_Atoms:                  26
##########                          Grid_Score:          -29.276844
##########                     Grid_vdw_energy:          -26.539135
##########                      Grid_es_energy:           -2.737708
##########           Internal_energy_repulsive:            3.862324

@<TRIPOS>MOLECULE
ZINC000080099940
 43 46 1 0 0
SMALL
USER_CHARGES


@<TRIPOS>ATOM
      1 C1        -15.6316   -3.4489   56.4163 C.3     1  ZINC000080099940   -0.1100
      2 C2        -14.2770   -3.1044   56.9800 C.2     1  ZINC000080099940   -0.0700
      3 C3        -14.1781   -2.3550   58.1107 C.2     1  ZINC000080099940   -0.0900
      4 C4        -12.9022   -2.0426   58.6234 C.2     1  ZINC000080099940    0.2300
      5 N5        -12.5167   -1.3466   59.6826 N.2     1  ZINC000080099940   -0.4800
      6 C6        -11.1754   -1.3386   59.7390 C.2     1  ZINC000080099940    0.1000
      7 C7        -10.3532   -0.6678   60.7760 C.ar    1  ZINC000080099940   -0.0200
      8 C8        -10.7817    0.5343   61.3367 C.ar    1  ZINC000080099940   -0.0800
      9 C9        -10.0163    1.1558   62.3005 C.ar    1  ZINC000080099940   -0.1200
     10 C10        -8.8180    0.5846   62.7127 C.ar    1  ZINC000080099940    0.1500
     11 N11        -8.0435    1.2166   63.6895 N.am    1  ZINC000080099940   -0.6500
     12 C12        -7.8090    0.6016   64.8656 C.2     1  ZINC000080099940    0.5700
     13 O13        -8.2709   -0.5021   65.0768 O.2     1  ZINC000080099940   -0.5000
     14 C14        -6.9866    1.2726   65.9028 C.ar    1  ZINC000080099940    0.1300
     15 C15        -6.7326    0.6446   67.1225 C.ar    1  ZINC000080099940   -0.1700
     16 C16        -5.9573    1.3153   68.0581 C.ar    1  ZINC000080099940    0.1600
     17 N17        -5.4895    2.5162   67.7647 N.ar    1  ZINC000080099940   -0.5000
     18 C18        -5.7487    3.0816   66.6013 C.ar    1  ZINC000080099940    0.3200
     19 C19        -5.1923    4.4524   66.3141 C.3     1  ZINC000080099940   -0.0900
     20 N20        -6.4743    2.4815   65.6827 N.ar    1  ZINC000080099940   -0.5000
     21 C21        -8.3891   -0.6142   62.1552 C.ar    1  ZINC000080099940   -0.1400
     22 C22        -9.1540   -1.2417   61.1950 C.ar    1  ZINC000080099940   -0.0700
     23 C23       -10.6987   -2.0526   58.6811 C.2     1  ZINC000080099940   -0.0900
     24 N24       -11.7821   -2.4977   57.9762 N.pl3   1  ZINC000080099940   -0.3600
     25 C25       -11.8964   -3.2490   56.8420 C.2     1  ZINC000080099940    0.0600
     26 C26       -13.1110   -3.5606   56.3432 C.2     1  ZINC000080099940   -0.1400
     27 H27       -15.5081   -4.0544   55.5183 H       1  ZINC000080099940    0.0700
     28 H28       -16.2014   -4.0097   57.1571 H       1  ZINC000080099940    0.0800
     29 H29       -16.1647   -2.5318   56.1656 H       1  ZINC000080099940    0.0800
     30 H30       -15.0681   -2.0024   58.6108 H       1  ZINC000080099940    0.1500
     31 H31       -11.7123    0.9787   61.0162 H       1  ZINC000080099940    0.1300
     32 H32       -10.3479    2.0871   62.7352 H       1  ZINC000080099940    0.1400
     33 H33        -7.6747    2.0977   63.5209 H       1  ZINC000080099940    0.4200
     34 H34        -7.1293   -0.3376   67.3333 H       1  ZINC000080099940    0.1600
     35 H35        -5.7392    0.8618   69.0138 H       1  ZINC000080099940    0.1800
     36 H36        -4.2113    4.3563   65.8488 H       1  ZINC000080099940    0.0900
     37 H37        -5.8641    4.9830   65.6393 H       1  ZINC000080099940    0.0900
     38 H38        -5.0993    5.0094   67.2465 H       1  ZINC000080099940    0.0900
     39 H39        -7.4577   -1.0562   62.4770 H       1  ZINC000080099940    0.1300
     40 H40        -8.8205   -2.1733   60.7624 H       1  ZINC000080099940    0.1400
     41 H41        -9.6605   -2.2327   58.4440 H       1  ZINC000080099940    0.1900
     42 H42       -11.0063   -3.6012   56.3419 H       1  ZINC000080099940    0.1700
     43 H43       -13.1867   -4.1561   55.4453 H       1  ZINC000080099940    0.1500
@<TRIPOS>BOND
     1     1     2    1
     2     1    27    1
     3     1    28    1
     4     1    29    1
     5     2    26    1
     6     2     3    2
     7     3     4    1
     8     3    30    1
     9     4    24    1
    10     4     5    2
    11     5     6    1
    12     6     7    1
    13     6    23    2
    14     7    22   ar
    15     7     8   ar
    16     8     9   ar
    17     8    31    1
    18     9    10   ar
    19     9    32    1
    20    10    11    1
    21    10    21   ar
    22    11    12   am
    23    11    33    1
    24    12    13    2
    25    12    14    1
    26    14    20   ar
    27    14    15   ar
    28    15    16   ar
    29    15    34    1
    30    16    17   ar
    31    16    35    1
    32    17    18   ar
    33    18    19    1
    34    18    20   ar
    35    19    36    1
    36    19    37    1
    37    19    38    1
    38    21    22   ar
    39    21    39    1
    40    22    40    1
    41    23    24    1
    42    23    41    1
    43    24    25    1
    44    25    26    2
    45    25    42    1
    46    26    43    1
@<TRIPOS>SUBSTRUCTURE
     1 ZINC000080099940        1 TEMP              0 ****  ****    0 ROOT


##########                                Name:    ZINC001058772245
##########                DOCK_Rotatable_Bonds:                  11
##########                         Heavy_Atoms:                  22
##########                    Molecular_Weight:             335.375
##########                DOCK_Rotatable_Bonds:                  11
##########                       Formal_Charge:          0.00999964
##########                     HBond_Acceptors:                   9
##########                        HBond_Donors:                   2
##########                         Heavy_Atoms:                  22
##########                          Grid_Score:          -29.238911
##########                     Grid_vdw_energy:          -28.732342
##########                      Grid_es_energy:           -0.506568
##########           Internal_energy_repulsive:           67.186630

@<TRIPOS>MOLECULE
ZINC001058772245
 41 41 1 0 0
SMALL
USER_CHARGES


@<TRIPOS>ATOM
      1 C1        -15.3371   -1.1160   58.5627 C.3     1  ZINC001058772245   -0.1700
      2 C2        -15.1819   -2.5263   59.1352 C.3     1  ZINC001058772245   -0.1400
      3 C3        -16.5651   -3.1405   59.3597 C.3     1  ZINC001058772245   -0.1500
      4 C4        -14.4048   -3.3793   58.1659 C.2     1  ZINC001058772245    0.5300
      5 O5        -14.9178   -4.3645   57.6790 O.2     1  ZINC001058772245   -0.5200
      6 N6        -13.1398   -3.0472   57.8402 N.am    1  ZINC001058772245   -0.5900
      7 C7        -12.3844   -3.8765   56.8979 C.3     1  ZINC001058772245    0.0800
      8 C8        -11.9700   -3.0303   55.6925 C.3     1  ZINC001058772245    0.0400
      9 O9        -13.1347   -2.4810   55.0731 O.3     1  ZINC001058772245   -0.5700
     10 C10       -12.5203   -1.8571   58.4283 C.3     1  ZINC001058772245    0.1100
     11 C11       -11.1735   -2.2363   59.0475 C.3     1  ZINC001058772245    0.1000
     12 N12       -10.9786   -1.4854   60.2901 N.am    1  ZINC001058772245   -0.7100
     13 C13        -9.7468   -1.3778   60.8263 C.2     1  ZINC001058772245    0.6000
     14 O14        -8.7966   -1.9029   60.2777 O.2     1  ZINC001058772245   -0.5300
     15 C15        -9.5511   -0.6244   62.0764 C.2     1  ZINC001058772245    0.0000
     16 C16        -8.3765   -0.5949   62.7456 C.2     1  ZINC001058772245   -0.2200
     17 S17        -8.5579    0.3834   64.1356 S.3     1  ZINC001058772245    0.2300
     18 C18       -10.1902    0.6964   63.7437 C.2     1  ZINC001058772245    0.0000
     19 N19       -10.5156    0.0980   62.6522 N.2     1  ZINC001058772245   -0.4400
     20 C20       -14.4327   -2.4564   60.4673 C.3     1  ZINC001058772245    0.2900
     21 F21       -14.4198   -1.1348   60.9262 F       1  ZINC001058772245   -0.1900
     22 F22       -15.0750   -3.2700   61.4069 F       1  ZINC001058772245   -0.2000
     23 H23       -15.6323   -0.4314   59.3578 H       1  ZINC001058772245    0.0800
     24 H24       -14.3880   -0.7904   58.1367 H       1  ZINC001058772245    0.0700
     25 H25       -16.1013   -1.1213   57.7854 H       1  ZINC001058772245    0.0900
     26 H26       -16.9924   -3.4339   58.4008 H       1  ZINC001058772245    0.0800
     27 H27       -16.4736   -4.0176   60.0003 H       1  ZINC001058772245    0.0700
     28 H28       -17.2149   -2.4075   59.8379 H       1  ZINC001058772245    0.0900
     29 H29       -11.4942   -4.2674   57.3908 H       1  ZINC001058772245    0.0900
     30 H30       -13.0078   -4.7056   56.5630 H       1  ZINC001058772245    0.1200
     31 H31       -11.3186   -2.2214   56.0232 H       1  ZINC001058772245    0.0600
     32 H32       -11.4378   -3.6555   54.9755 H       1  ZINC001058772245    0.0700
     33 H33       -13.7901   -3.1423   54.8116 H       1  ZINC001058772245    0.3800
     34 H34       -12.3653   -1.1072   57.6527 H       1  ZINC001058772245    0.1000
     35 H35       -13.1738   -1.4514   59.2006 H       1  ZINC001058772245    0.0900
     36 H36       -11.1605   -3.3048   59.2628 H       1  ZINC001058772245    0.0700
     37 H37       -10.3720   -1.9967   58.3486 H       1  ZINC001058772245    0.0700
     38 H38       -11.7360   -1.0656   60.7271 H       1  ZINC001058772245    0.4100
     39 H39        -7.4719   -1.1057   62.4502 H       1  ZINC001058772245    0.1900
     40 H40       -10.8559    1.3136   64.3287 H       1  ZINC001058772245    0.2100
     41 H41       -13.4087   -2.8023   60.3269 H       1  ZINC001058772245    0.1200
@<TRIPOS>BOND
     1     1     2    1
     2     1    23    1
     3     1    24    1
     4     1    25    1
     5     2     3    1
     6     2     4    1
     7     2    20    1
     8     3    26    1
     9     3    27    1
    10     3    28    1
    11     4     5    2
    12     4     6   am
    13     6     7    1
    14     6    10    1
    15     7     8    1
    16     7    29    1
    17     7    30    1
    18     8     9    1
    19     8    31    1
    20     8    32    1
    21     9    33    1
    22    10    11    1
    23    10    34    1
    24    10    35    1
    25    11    12    1
    26    11    36    1
    27    11    37    1
    28    12    13   am
    29    12    38    1
    30    13    14    2
    31    13    15    1
    32    15    19    1
    33    15    16    2
    34    16    17    1
    35    16    39    1
    36    17    18    1
    37    18    19    2
    38    18    40    1
    39    20    21    1
    40    20    22    1
    41    20    41    1
@<TRIPOS>SUBSTRUCTURE
     1 ZINC001058772245        1 TEMP              0 ****  ****    0 ROOT


##########                                Name:    ZINC000163855860
##########                DOCK_Rotatable_Bonds:                   6
##########                         Heavy_Atoms:                  28
##########                    Molecular_Weight:             398.483
##########                DOCK_Rotatable_Bonds:                   6
##########                       Formal_Charge:          -0.0100004
##########                     HBond_Acceptors:                   7
##########                        HBond_Donors:                   1
##########                         Heavy_Atoms:                  28
##########                          Grid_Score:          -29.234291
##########                     Grid_vdw_energy:          -29.530581
##########                      Grid_es_energy:            0.296289
##########           Internal_energy_repulsive:           25.214014

@<TRIPOS>MOLECULE
ZINC000163855860
 50 53 1 0 0
SMALL
USER_CHARGES


@<TRIPOS>ATOM
      1 C1        -11.2006   -1.9120   52.7103 C.3     1  ZINC000163855860   -0.1300
      2 C2        -11.4681   -0.5141   53.2055 C.ar    1  ZINC000163855860   -0.0600
      3 C3        -10.6492    0.5321   52.8106 C.ar    1  ZINC000163855860    0.1400
      4 N4         -9.5721    0.2912   51.9501 N.am    1  ZINC000163855860   -0.6700
      5 C5         -8.3156    0.5728   52.3480 C.2     1  ZINC000163855860    0.5100
      6 O6         -8.1183    1.0349   53.4519 O.2     1  ZINC000163855860   -0.5100
      7 C7         -7.1558    0.3133   51.4214 C.3     1  ZINC000163855860   -0.1300
      8 C8         -6.6167    1.6446   50.8941 C.3     1  ZINC000163855860   -0.1100
      9 H9         -5.9420    1.4856   50.0529 H       1  ZINC000163855860    0.1100
     10 C10        -7.7743    2.5902   50.5004 C.3     1  ZINC000163855860    0.0600
     11 O11        -7.2893    3.9217   50.8447 O.3     1  ZINC000163855860   -0.3500
     12 C12        -6.4555    3.8472   51.8919 C.2     1  ZINC000163855860    0.4800
     13 O13        -6.1764    4.7666   52.6244 O.2     1  ZINC000163855860   -0.4500
     14 C14        -5.9162    2.4389   52.0188 C.3     1  ZINC000163855860   -0.1800
     15 C15       -10.9012    1.8215   53.2644 C.ar    1  ZINC000163855860   -0.1100
     16 C16       -11.9642    2.0647   54.1136 C.ar    1  ZINC000163855860   -0.1100
     17 C17       -12.7828    1.0290   54.5166 C.ar    1  ZINC000163855860   -0.1000
     18 C18       -12.5378   -0.2694   54.0667 C.ar    1  ZINC000163855860   -0.1100
     19 C19       -13.4134   -1.3808   54.4964 C.2     1  ZINC000163855860    0.5700
     20 O20       -14.3654   -1.7036   53.8130 O.2     1  ZINC000163855860   -0.5300
     21 N21       -13.1560   -2.0358   55.6457 N.am    1  ZINC000163855860   -0.6100
     22 C22       -12.0095   -1.6614   56.4873 C.3     1  ZINC000163855860    0.1200
     23 C23       -12.5463   -1.1279   57.8248 C.3     1  ZINC000163855860   -0.0600
     24 C24       -13.6304   -2.0571   58.3280 C.2     1  ZINC000163855860   -0.1700
     25 C25       -14.2933   -2.9539   57.5734 C.2     1  ZINC000163855860   -0.1300
     26 C26       -15.2511   -3.6794   58.2747 C.2     1  ZINC000163855860   -0.1200
     27 C27       -15.3630   -3.3864   59.5664 C.2     1  ZINC000163855860   -0.2100
     28 S28       -14.2168   -2.1222   59.9853 S.3     1  ZINC000163855860    0.1100
     29 C29       -14.0101   -3.1471   56.0880 C.3     1  ZINC000163855860    0.1700
     30 H30       -10.6009   -2.4492   53.4452 H       1  ZINC000163855860    0.0700
     31 H31       -12.1468   -2.4326   52.5629 H       1  ZINC000163855860    0.0900
     32 H32       -10.6604   -1.8653   51.7647 H       1  ZINC000163855860    0.0700
     33 H33        -9.7299   -0.0785   51.0672 H       1  ZINC000163855860    0.4100
     34 H34        -7.4895   -0.3005   50.5848 H       1  ZINC000163855860    0.1100
     35 H35        -6.3674   -0.2088   51.9634 H       1  ZINC000163855860    0.1100
     36 H36        -8.6714    2.3522   51.0719 H       1  ZINC000163855860    0.0800
     37 H37        -7.9740    2.5227   49.4310 H       1  ZINC000163855860    0.1200
     38 H38        -4.8361    2.4317   51.8724 H       1  ZINC000163855860    0.1200
     39 H39        -6.1706    2.0217   52.9932 H       1  ZINC000163855860    0.1200
     40 H40       -10.2645    2.6359   52.9523 H       1  ZINC000163855860    0.1500
     41 H41       -12.1554    3.0687   54.4626 H       1  ZINC000163855860    0.1300
     42 H42       -13.6124    1.2232   55.1802 H       1  ZINC000163855860    0.1300
     43 H43       -11.3841   -2.5364   56.6642 H       1  ZINC000163855860    0.0800
     44 H44       -11.4271   -0.8865   55.9887 H       1  ZINC000163855860    0.1000
     45 H45       -12.9594   -0.1294   57.6818 H       1  ZINC000163855860    0.0900
     46 H46       -11.7355   -1.0862   58.5522 H       1  ZINC000163855860    0.0900
     47 H47       -15.8639   -4.4317   57.8004 H       1  ZINC000163855860    0.1400
     48 H48       -16.0526   -3.8541   60.2535 H       1  ZINC000163855860    0.1700
     49 H49       -14.9461   -3.1383   55.5295 H       1  ZINC000163855860    0.1000
     50 H50       -13.4948   -4.0945   55.9297 H       1  ZINC000163855860    0.0900
@<TRIPOS>BOND
     1     1     2    1
     2     1    30    1
     3     1    31    1
     4     1    32    1
     5     2    18   ar
     6     2     3   ar
     7     3     4    1
     8     3    15   ar
     9     4     5   am
    10     4    33    1
    11     5     6    2
    12     5     7    1
    13     7     8    1
    14     7    34    1
    15     7    35    1
    16     8     9    1
    17     8    14    1
    18     8    10    1
    19    10    11    1
    20    10    36    1
    21    10    37    1
    22    11    12    1
    23    12    13    2
    24    12    14    1
    25    14    38    1
    26    14    39    1
    27    15    16   ar
    28    15    40    1
    29    16    17   ar
    30    16    41    1
    31    17    18   ar
    32    17    42    1
    33    18    19    1
    34    19    20    2
    35    19    21   am
    36    21    29    1
    37    21    22    1
    38    22    23    1
    39    22    43    1
    40    22    44    1
    41    23    24    1
    42    23    45    1
    43    23    46    1
    44    24    28    1
    45    24    25    2
    46    25    26    1
    47    25    29    1
    48    26    27    2
    49    26    47    1
    50    27    28    1
    51    27    48    1
    52    29    49    1
    53    29    50    1
@<TRIPOS>SUBSTRUCTURE
     1 ZINC000163855860        1 TEMP              0 ****  ****    0 ROOT


##########                                Name:    ZINC001082278299
##########                DOCK_Rotatable_Bonds:                   9
##########                         Heavy_Atoms:                  25
##########                    Molecular_Weight:              346.47
##########                DOCK_Rotatable_Bonds:                   9
##########                       Formal_Charge:           0.0200001
##########                     HBond_Acceptors:                   5
##########                        HBond_Donors:                   1
##########                         Heavy_Atoms:                  25
##########                          Grid_Score:          -29.220636
##########                     Grid_vdw_energy:          -28.551964
##########                      Grid_es_energy:           -0.668672
##########           Internal_energy_repulsive:           91.908104

@<TRIPOS>MOLECULE
ZINC001082278299
 55 57 1 0 0
SMALL
USER_CHARGES


@<TRIPOS>ATOM
      1 C1         -6.7134    3.5872   50.5156 C.3     1  ZINC001082278299   -0.1300
      2 C2         -5.4760    2.7963   50.8536 C.2     1  ZINC001082278299    0.0000
      3 C3         -5.5837    1.5357   51.2636 C.2     1  ZINC001082278299   -0.2300
      4 C4         -6.9108    0.9133   51.3873 C.2     1  ZINC001082278299    0.5400
      5 O5         -7.4038    0.3386   50.4357 O.2     1  ZINC001082278299   -0.5300
      6 N6         -7.5802    0.9800   52.5552 N.am    1  ZINC001082278299   -0.7400
      7 C7         -8.9027    0.3616   52.6777 C.3     1  ZINC001082278299    0.1300
      8 C8         -9.9733    1.4534   52.7281 C.3     1  ZINC001082278299    0.1400
      9 H9         -9.9995    1.9838   51.7763 H       1  ZINC001082278299    0.0800
     10 C10        -9.6499    2.4382   53.8561 C.3     1  ZINC001082278299   -0.1300
     11 C11       -10.7939    3.4456   53.9921 C.3     1  ZINC001082278299   -0.1200
     12 C12       -12.0857    2.7078   54.3508 C.3     1  ZINC001082278299   -0.1400
     13 C13       -12.4368    1.7261   53.2284 C.3     1  ZINC001082278299    0.1100
     14 N14       -11.2851    0.8452   52.9892 N.am    1  ZINC001082278299   -0.6100
     15 C15       -11.4285   -0.4947   53.0141 C.2     1  ZINC001082278299    0.5100
     16 O16       -10.4703   -1.2110   52.8151 O.2     1  ZINC001082278299   -0.5100
     17 C17       -12.7796   -1.1029   53.2892 C.3     1  ZINC001082278299   -0.1100
     18 C18       -13.6985   -0.8324   52.1258 C.2     1  ZINC001082278299   -0.0900
     19 C19       -13.1961   -0.7972   50.9274 C.2     1  ZINC001082278299   -0.1800
     20 C20       -14.0245   -0.5266   49.7037 C.3     1  ZINC001082278299    0.0900
     21 O21       -15.4126   -0.6830   50.0050 O.3     1  ZINC001082278299   -0.3800
     22 C22       -15.8169    0.0391   51.1749 C.3     1  ZINC001082278299    0.0600
     23 C23       -15.1626   -0.6195   52.3949 C.3     1  ZINC001082278299   -0.1100
     24 C24        -4.1163    3.4338   50.7270 C.3     1  ZINC001082278299   -0.1200
     25 C25        -3.0041    2.9130   51.6395 C.3     1  ZINC001082278299   -0.1900
     26 C26        -2.9871    2.5802   50.1462 C.3     1  ZINC001082278299   -0.1500
     27 H27        -7.0719    4.0999   51.4082 H       1  ZINC001082278299    0.0800
     28 H28        -6.4764    4.3213   49.7455 H       1  ZINC001082278299    0.0800
     29 H29        -7.4869    2.9125   50.1487 H       1  ZINC001082278299    0.0700
     30 H30        -4.6968    0.9690   51.5058 H       1  ZINC001082278299    0.1300
     31 H31        -7.1864    1.4375   53.3144 H       1  ZINC001082278299    0.3900
     32 H32        -9.0828   -0.2843   51.8184 H       1  ZINC001082278299    0.0900
     33 H33        -8.9438   -0.2302   53.5921 H       1  ZINC001082278299    0.0800
     34 H34        -9.5321    1.8929   54.7925 H       1  ZINC001082278299    0.0700
     35 H35        -8.7254    2.9667   53.6237 H       1  ZINC001082278299    0.0800
     36 H36       -10.5550    4.1625   54.7777 H       1  ZINC001082278299    0.0700
     37 H37       -10.9273    3.9732   53.0476 H       1  ZINC001082278299    0.0700
     38 H38       -11.9451    2.1600   55.2826 H       1  ZINC001082278299    0.0700
     39 H39       -12.8949    3.4282   54.4704 H       1  ZINC001082278299    0.0800
     40 H40       -13.2995    1.1282   53.5224 H       1  ZINC001082278299    0.0900
     41 H41       -12.6664    2.2792   52.3177 H       1  ZINC001082278299    0.0700
     42 H42       -12.6727   -2.1791   53.4252 H       1  ZINC001082278299    0.1000
     43 H43       -13.1991   -0.6623   54.1936 H       1  ZINC001082278299    0.1000
     44 H44       -12.1368   -0.9697   50.8063 H       1  ZINC001082278299    0.1100
     45 H45       -13.8414    0.4920   49.3615 H       1  ZINC001082278299    0.0600
     46 H46       -13.7446   -1.2261   48.9160 H       1  ZINC001082278299    0.1000
     47 H47       -15.4937    1.0770   51.0957 H       1  ZINC001082278299    0.0600
     48 H48       -16.9015   -0.0016   51.2748 H       1  ZINC001082278299    0.1000
     49 H49       -15.6447   -1.5769   52.5927 H       1  ZINC001082278299    0.0800
     50 H50       -15.2767    0.0300   53.2627 H       1  ZINC001082278299    0.0800
     51 H51        -4.1161    4.4977   50.4896 H       1  ZINC001082278299    0.1300
     52 H52        -2.2720    3.6342   52.0027 H       1  ZINC001082278299    0.1000
     53 H53        -3.2559    2.1092   52.3314 H       1  ZINC001082278299    0.1000
     54 H54        -3.2278    1.5575   49.8558 H       1  ZINC001082278299    0.0900
     55 H55        -2.2439    3.0825   49.5271 H       1  ZINC001082278299    0.1000
@<TRIPOS>BOND
     1     1     2    1
     2     1    27    1
     3     1    28    1
     4     1    29    1
     5     2     3    2
     6     2    24    1
     7     3     4    1
     8     3    30    1
     9     4     5    2
    10     4     6   am
    11     6     7    1
    12     6    31    1
    13     7     8    1
    14     7    32    1
    15     7    33    1
    16     8     9    1
    17     8    14    1
    18     8    10    1
    19    10    11    1
    20    10    34    1
    21    10    35    1
    22    11    12    1
    23    11    36    1
    24    11    37    1
    25    12    13    1
    26    12    38    1
    27    12    39    1
    28    13    14    1
    29    13    40    1
    30    13    41    1
    31    14    15   am
    32    15    16    2
    33    15    17    1
    34    17    18    1
    35    17    42    1
    36    17    43    1
    37    18    23    1
    38    18    19    2
    39    19    20    1
    40    19    44    1
    41    20    21    1
    42    20    45    1
    43    20    46    1
    44    21    22    1
    45    22    23    1
    46    22    47    1
    47    22    48    1
    48    23    49    1
    49    23    50    1
    50    24    26    1
    51    24    25    1
    52    24    51    1
    53    25    26    1
    54    25    52    1
    55    25    53    1
    56    26    54    1
    57    26    55    1
@<TRIPOS>SUBSTRUCTURE
     1 ZINC001082278299        1 TEMP              0 ****  ****    0 ROOT


##########                                Name:    ZINC000425987417
##########                DOCK_Rotatable_Bonds:                   9
##########                         Heavy_Atoms:                  25
##########                    Molecular_Weight:             357.419
##########                DOCK_Rotatable_Bonds:                   9
##########                       Formal_Charge:         -0.00999992
##########                     HBond_Acceptors:                   7
##########                        HBond_Donors:                   1
##########                         Heavy_Atoms:                  25
##########                          Grid_Score:          -29.215677
##########                     Grid_vdw_energy:          -29.146648
##########                      Grid_es_energy:           -0.069030
##########           Internal_energy_repulsive:           15.545855

@<TRIPOS>MOLECULE
ZINC000425987417
 51 52 1 0 0
SMALL
USER_CHARGES


@<TRIPOS>ATOM
      1 C1         -0.5620    2.5578   50.8266 C.3     1  ZINC000425987417   -0.1500
      2 C2         -1.3621    3.8173   50.4881 C.3     1  ZINC000425987417    0.0400
      3 N3         -2.7321    3.6795   51.0000 N.3     1  ZINC000425987417   -0.5300
      4 C4         -3.3789    2.4780   50.4559 C.3     1  ZINC000425987417    0.0400
      5 C5         -4.8162    2.8115   50.0511 C.3     1  ZINC000425987417    0.1400
      6 N6         -5.7484    2.1037   50.9322 N.am    1  ZINC000425987417   -0.7500
      7 C7         -6.9965    2.5787   51.1138 C.2     1  ZINC000425987417    0.7200
      8 O8         -7.3488    3.5946   50.5463 O.2     1  ZINC000425987417   -0.5800
      9 N9         -7.8541    1.9276   51.9244 N.am    1  ZINC000425987417   -0.6200
     10 C10        -7.4584    0.6951   52.6258 C.3     1  ZINC000425987417    0.1300
     11 C11        -8.3255   -0.4459   52.0959 C.3     1  ZINC000425987417   -0.1000
     12 C12        -9.7771   -0.0461   52.0648 C.ar    1  ZINC000425987417   -0.0600
     13 C13       -10.7244   -1.0616   52.0256 C.ar    1  ZINC000425987417   -0.1200
     14 C14       -12.0709   -0.7641   51.9859 C.ar    1  ZINC000425987417   -0.1100
     15 C15       -12.4839    0.5550   51.9835 C.ar    1  ZINC000425987417   -0.1200
     16 C16       -11.5452    1.5657   52.0258 C.ar    1  ZINC000425987417   -0.1100
     17 C17       -10.1904    1.2676   52.0715 C.ar    1  ZINC000425987417   -0.0900
     18 C18        -9.2169    2.4218   52.1478 C.3     1  ZINC000425987417    0.1800
     19 H19        -9.4659    3.1575   51.3830 H       1  ZINC000425987417    0.0900
     20 C20        -9.3070    3.0733   53.5293 C.3     1  ZINC000425987417   -0.1600
     21 C21        -2.7464    3.6657   52.4689 C.3     1  ZINC000425987417    0.0500
     22 C22        -3.9006    4.5327   52.9758 C.3     1  ZINC000425987417   -0.1600
     23 C23        -3.8986    4.5410   54.5057 C.3     1  ZINC000425987417    0.4500
     24 F24        -2.6599    4.9984   54.9680 F       1  ZINC000425987417   -0.1800
     25 F25        -4.9109    5.3882   54.9689 F       1  ZINC000425987417   -0.1800
     26 F26        -4.1229    3.2439   54.9794 F       1  ZINC000425987417   -0.1900
     27 H27        -1.0103    1.6980   50.3287 H       1  ZINC000425987417    0.0500
     28 H28         0.4667    2.6787   50.4871 H       1  ZINC000425987417    0.0600
     29 H29        -0.5725    2.3995   51.9049 H       1  ZINC000425987417    0.0700
     30 H30        -0.8876    4.6838   50.9487 H       1  ZINC000425987417    0.0800
     31 H31        -1.3900    3.9503   49.4066 H       1  ZINC000425987417    0.0400
     32 H32        -2.8263    2.1320   49.5823 H       1  ZINC000425987417    0.0500
     33 H33        -3.3872    1.6949   51.2141 H       1  ZINC000425987417    0.0800
     34 H34        -4.9782    3.8857   50.1385 H       1  ZINC000425987417    0.0800
     35 H35        -4.9845    2.5013   49.0198 H       1  ZINC000425987417    0.0700
     36 H36        -5.4672    1.2932   51.3850 H       1  ZINC000425987417    0.3900
     37 H37        -6.4075    0.4809   52.4307 H       1  ZINC000425987417    0.1000
     38 H38        -7.6186    0.8130   53.6975 H       1  ZINC000425987417    0.0700
     39 H39        -8.0027   -0.7029   51.0872 H       1  ZINC000425987417    0.0800
     40 H40        -8.2071   -1.3159   52.7419 H       1  ZINC000425987417    0.0900
     41 H41       -10.4039   -2.0929   52.0257 H       1  ZINC000425987417    0.1200
     42 H42       -12.8005   -1.5599   51.9564 H       1  ZINC000425987417    0.1200
     43 H43       -13.5366    0.7937   51.9483 H       1  ZINC000425987417    0.1200
     44 H44       -11.8673    2.5965   52.0232 H       1  ZINC000425987417    0.1200
     45 H45        -9.0596    2.3377   54.2947 H       1  ZINC000425987417    0.0700
     46 H46        -8.6053    3.9055   53.5849 H       1  ZINC000425987417    0.0600
     47 H47       -10.3201    3.4406   53.6925 H       1  ZINC000425987417    0.0700
     48 H48        -2.8784    2.6428   52.8214 H       1  ZINC000425987417    0.0500
     49 H49        -1.8028    4.0608   52.8451 H       1  ZINC000425987417    0.0900
     50 H50        -3.7793    5.5512   52.6068 H       1  ZINC000425987417    0.1200
     51 H51        -4.8457    4.1261   52.6159 H       1  ZINC000425987417    0.1100
@<TRIPOS>BOND
     1     1     2    1
     2     1    27    1
     3     1    28    1
     4     1    29    1
     5     2     3    1
     6     2    30    1
     7     2    31    1
     8     3     4    1
     9     3    21    1
    10     4     5    1
    11     4    32    1
    12     4    33    1
    13     5     6    1
    14     5    34    1
    15     5    35    1
    16     6     7   am
    17     6    36    1
    18     7     8    2
    19     7     9   am
    20     9    18    1
    21     9    10    1
    22    10    11    1
    23    10    37    1
    24    10    38    1
    25    11    12    1
    26    11    39    1
    27    11    40    1
    28    12    17   ar
    29    12    13   ar
    30    13    14   ar
    31    13    41    1
    32    14    15   ar
    33    14    42    1
    34    15    16   ar
    35    15    43    1
    36    16    17   ar
    37    16    44    1
    38    17    18    1
    39    18    19    1
    40    18    20    1
    41    20    45    1
    42    20    46    1
    43    20    47    1
    44    21    22    1
    45    21    48    1
    46    21    49    1
    47    22    23    1
    48    22    50    1
    49    22    51    1
    50    23    24    1
    51    23    25    1
    52    23    26    1
@<TRIPOS>SUBSTRUCTURE
     1 ZINC000425987417        1 TEMP              0 ****  ****    0 ROOT


##########                                Name:    ZINC000609484313
##########                DOCK_Rotatable_Bonds:                  10
##########                         Heavy_Atoms:                  26
##########                    Molecular_Weight:             361.487
##########                DOCK_Rotatable_Bonds:                  10
##########                       Formal_Charge:          -0.0200004
##########                     HBond_Acceptors:                   7
##########                        HBond_Donors:                   1
##########                         Heavy_Atoms:                  26
##########                          Grid_Score:          -29.196198
##########                     Grid_vdw_energy:          -27.332678
##########                      Grid_es_energy:           -1.863519
##########           Internal_energy_repulsive:           33.055927

@<TRIPOS>MOLECULE
ZINC000609484313
 57 58 1 0 0
SMALL
USER_CHARGES


@<TRIPOS>ATOM
      1 C1         -3.2281    3.2749   50.3793 C.3     1  ZINC000609484313   -0.1500
      2 C2         -4.3180    2.2382   50.6588 C.3     1  ZINC000609484313   -0.1300
      3 C3         -5.6674    2.9440   50.8066 C.3     1  ZINC000609484313   -0.1100
      4 C4         -6.7541    1.9094   51.1057 C.3     1  ZINC000609484313   -0.1100
      5 C5         -7.9431    2.5984   51.7784 C.3     1  ZINC000609484313    0.0800
      6 H6         -7.6816    2.8540   52.8052 H       1  ZINC000609484313    0.1200
      7 C7         -8.2905    3.8540   51.0210 C.2     1  ZINC000609484313    0.4900
      8 O8         -8.1678    4.9368   51.5533 O.2     1  ZINC000609484313   -0.5000
      9 N9         -8.7377    3.7736   49.7521 N.am    1  ZINC000609484313   -0.6300
     10 C10        -9.0577    4.9361   49.0505 C.2     1  ZINC000609484313    0.2400
     11 N11        -8.9766    6.1649   49.4890 N.2     1  ZINC000609484313   -0.3900
     12 O12        -9.3243    6.9595   48.6465 O.3     1  ZINC000609484313    0.1000
     13 C13        -9.6911    6.3499   47.5100 C.2     1  ZINC000609484313   -0.0200
     14 C14       -10.1794    7.0145   46.2487 C.3     1  ZINC000609484313   -0.0800
     15 C15        -9.5313    5.0224   47.7142 C.2     1  ZINC000609484313   -0.2300
     16 N16        -9.0987    1.6912   51.7788 N.3     1  ZINC000609484313   -0.5000
     17 C17       -10.2904    2.3566   52.3233 C.3     1  ZINC000609484313    0.0400
     18 C18       -11.4875    1.4073   52.2330 C.3     1  ZINC000609484313    0.0500
     19 N19       -11.1895    0.1753   52.9766 N.3     1  ZINC000609484313   -0.5100
     20 C20       -12.3451   -0.7319   52.9770 C.3     1  ZINC000609484313    0.1800
     21 H21       -12.8998   -0.6141   52.0461 H       1  ZINC000609484313    0.1200
     22 C22       -11.8772   -2.1224   53.0969 C.1     1  ZINC000609484313    0.1700
     23 N23       -11.5161   -3.1955   53.1894 N.1     1  ZINC000609484313   -0.4200
     24 C24       -13.2562   -0.3966   54.1595 C.3     1  ZINC000609484313   -0.0800
     25 C25       -14.6093    0.0917   53.6384 C.3     1  ZINC000609484313   -0.1400
     26 C26       -13.4611   -1.6477   55.0162 C.3     1  ZINC000609484313   -0.1500
     27 C27        -9.9978   -0.4901   52.4320 C.3     1  ZINC000609484313    0.0500
     28 C28        -8.8007    0.4592   52.5224 C.3     1  ZINC000609484313    0.0400
     29 H29        -3.4618    3.8083   49.4580 H       1  ZINC000609484313    0.0500
     30 H30        -3.1792    3.9828   51.2066 H       1  ZINC000609484313    0.0500
     31 H31        -2.2668    2.7720   50.2740 H       1  ZINC000609484313    0.0500
     32 H32        -4.3669    1.5303   49.8314 H       1  ZINC000609484313    0.0600
     33 H33        -4.0843    1.7046   51.5802 H       1  ZINC000609484313    0.0600
     34 H34        -5.6142    3.6621   51.6249 H       1  ZINC000609484313    0.0800
     35 H35        -5.9078    3.4659   49.8803 H       1  ZINC000609484313    0.0600
     36 H36        -7.0815    1.4467   50.1747 H       1  ZINC000609484313    0.0700
     37 H37        -6.3539    1.1440   51.7706 H       1  ZINC000609484313    0.0800
     38 H38        -8.8369    2.9076   49.3268 H       1  ZINC000609484313    0.4200
     39 H39       -10.1950    8.0951   46.3901 H       1  ZINC000609484313    0.0800
     40 H40        -9.5108    6.7654   45.4246 H       1  ZINC000609484313    0.0900
     41 H41       -11.1855    6.6635   46.0191 H       1  ZINC000609484313    0.0900
     42 H42        -9.7256    4.2150   47.0239 H       1  ZINC000609484313    0.1900
     43 H43       -10.1143    2.6217   53.3658 H       1  ZINC000609484313    0.0800
     44 H44       -10.4977    3.2591   51.7483 H       1  ZINC000609484313    0.0800
     45 H45       -12.3662    1.8882   52.6629 H       1  ZINC000609484313    0.0900
     46 H46       -11.6803    1.1638   51.1882 H       1  ZINC000609484313    0.0400
     47 H47       -12.7954    0.3855   54.7629 H       1  ZINC000609484313    0.0800
     48 H48       -15.0700   -0.6904   53.0350 H       1  ZINC000609484313    0.0600
     49 H49       -15.2584    0.3305   54.4808 H       1  ZINC000609484313    0.0500
     50 H50       -14.4634    0.9830   53.0281 H       1  ZINC000609484313    0.0700
     51 H51       -14.1829   -1.4341   55.8044 H       1  ZINC000609484313    0.0700
     52 H52       -13.8348   -2.4588   54.3913 H       1  ZINC000609484313    0.0600
     53 H53       -12.5113   -1.9415   55.4632 H       1  ZINC000609484313    0.0500
     54 H54        -9.7905   -1.3926   53.0070 H       1  ZINC000609484313    0.0900
     55 H55       -10.1739   -0.7552   51.3895 H       1  ZINC000609484313    0.0400
     56 H56        -7.9221   -0.0216   52.0925 H       1  ZINC000609484313    0.0800
     57 H57        -8.6078    0.7028   53.5672 H       1  ZINC000609484313    0.0800
@<TRIPOS>BOND
     1     1     2    1
     2     1    29    1
     3     1    30    1
     4     1    31    1
     5     2     3    1
     6     2    32    1
     7     2    33    1
     8     3     4    1
     9     3    34    1
    10     3    35    1
    11     4     5    1
    12     4    36    1
    13     4    37    1
    14     5     6    1
    15     5     7    1
    16     5    16    1
    17     7     8    2
    18     7     9   am
    19     9    10    1
    20     9    38    1
    21    10    15    1
    22    10    11    2
    23    11    12    1
    24    12    13    1
    25    13    14    1
    26    13    15    2
    27    14    39    1
    28    14    40    1
    29    14    41    1
    30    15    42    1
    31    16    28    1
    32    16    17    1
    33    17    18    1
    34    17    43    1
    35    17    44    1
    36    18    19    1
    37    18    45    1
    38    18    46    1
    39    19    20    1
    40    19    27    1
    41    20    21    1
    42    20    22    1
    43    20    24    1
    44    22    23    3
    45    24    25    1
    46    24    26    1
    47    24    47    1
    48    25    48    1
    49    25    49    1
    50    25    50    1
    51    26    51    1
    52    26    52    1
    53    26    53    1
    54    27    28    1
    55    27    54    1
    56    27    55    1
    57    28    56    1
    58    28    57    1
@<TRIPOS>SUBSTRUCTURE
     1 ZINC000609484313        1 TEMP              0 ****  ****    0 ROOT


##########                                Name:    ZINC000929592477
##########                DOCK_Rotatable_Bonds:                   7
##########                         Heavy_Atoms:                  28
##########                    Molecular_Weight:             399.517
##########                DOCK_Rotatable_Bonds:                   7
##########                       Formal_Charge:         -8.9407e-08
##########                     HBond_Acceptors:                   8
##########                        HBond_Donors:                   3
##########                         Heavy_Atoms:                  28
##########                          Grid_Score:          -29.188766
##########                     Grid_vdw_energy:          -23.405190
##########                      Grid_es_energy:           -5.783578
##########           Internal_energy_repulsive:           64.001129

@<TRIPOS>MOLECULE
ZINC000929592477
 53 56 1 0 0
SMALL
USER_CHARGES


@<TRIPOS>ATOM
      1 O1         -9.1262    0.2608   58.8754 O.2     1  ZINC000929592477   -0.5700
      2 C2         -9.1662    1.3451   59.4243 C.2     1  ZINC000929592477    0.7100
      3 N3         -9.2188    2.4720   58.6870 N.am    1  ZINC000929592477   -0.6800
      4 C4         -9.2217    2.3945   57.2872 C.ar    1  ZINC000929592477    0.1600
      5 C5         -8.1141    1.8919   56.6176 C.ar    1  ZINC000929592477   -0.1300
      6 C6         -8.1163    1.8158   55.2391 C.ar    1  ZINC000929592477   -0.0800
      7 C7         -9.2274    2.2418   54.5219 C.ar    1  ZINC000929592477   -0.1000
      8 S8         -9.2312    2.1443   52.7627 S.3     1  ZINC000929592477   -0.1100
      9 C9         -7.6017    1.4401   52.3895 C.3     1  ZINC000929592477   -0.0800
     10 C10        -7.3665    1.3987   50.8592 C.3     1  ZINC000929592477   -0.1200
     11 C11        -5.8216    1.3767   50.7511 C.3     1  ZINC000929592477   -0.1200
     12 C12        -5.3501    2.3191   51.8778 C.3     1  ZINC000929592477   -0.1200
     13 C13        -6.4819    2.3594   52.9196 C.3     1  ZINC000929592477   -0.1000
     14 C14       -10.3358    2.7442   55.1924 C.ar    1  ZINC000929592477   -0.1200
     15 C15       -10.3346    2.8150   56.5711 C.ar    1  ZINC000929592477   -0.1000
     16 N16        -9.1634    1.4197   60.7700 N.am    1  ZINC000929592477   -0.7300
     17 C17        -9.1062    0.1946   61.5714 C.3     1  ZINC000929592477    0.1500
     18 H18        -8.5677   -0.5887   61.0381 H       1  ZINC000929592477    0.1200
     19 C19       -10.5337   -0.2807   61.9501 C.3     1  ZINC000929592477   -0.1400
     20 C20       -10.8346    0.5965   63.1910 C.3     1  ZINC000929592477    0.1100
     21 N21        -9.5486    0.6942   63.9049 N.pl3   1  ZINC000929592477   -0.6000
     22 C22        -9.3938    0.9522   65.2516 C.2     1  ZINC000929592477    0.4600
     23 C23        -8.1649    0.7622   65.8613 C.2     1  ZINC000929592477   -0.4000
     24 C24        -8.0500    1.0360   67.2312 C.2     1  ZINC000929592477    0.5300
     25 O25        -6.9856    0.8828   67.8091 O.2     1  ZINC000929592477   -0.5500
     26 N26        -9.1385    1.4723   67.8991 N.am    1  ZINC000929592477   -0.6400
     27 C27       -10.3104    1.6393   67.2543 C.2     1  ZINC000929592477    0.4100
     28 N28       -10.4320    1.3943   65.9787 N.2     1  ZINC000929592477   -0.5700
     29 C29        -8.4536    0.4693   62.9427 C.3     1  ZINC000929592477    0.1100
     30 H30        -9.2548    3.3369   59.1249 H       1  ZINC000929592477    0.4100
     31 H31        -7.2504    1.5609   57.1751 H       1  ZINC000929592477    0.1300
     32 H32        -7.2544    1.4256   54.7184 H       1  ZINC000929592477    0.1300
     33 H33        -7.5110    0.4422   52.8185 H       1  ZINC000929592477    0.1000
     34 H34        -7.7970    0.4955   50.4265 H       1  ZINC000929592477    0.0700
     35 H35        -7.7745    2.2894   50.3813 H       1  ZINC000929592477    0.0800
     36 H36        -5.4421    0.3679   50.9138 H       1  ZINC000929592477    0.0700
     37 H37        -5.5017    1.7536   49.7797 H       1  ZINC000929592477    0.0700
     38 H38        -4.4383    1.9311   52.3320 H       1  ZINC000929592477    0.0700
     39 H39        -5.1736    3.3182   51.4795 H       1  ZINC000929592477    0.0700
     40 H40        -6.8546    3.3780   53.0268 H       1  ZINC000929592477    0.0700
     41 H41        -6.1194    1.9910   53.8792 H       1  ZINC000929592477    0.0800
     42 H42       -11.1997    3.0753   54.6353 H       1  ZINC000929592477    0.1300
     43 H43       -11.1962    3.2052   57.0924 H       1  ZINC000929592477    0.1400
     44 H44        -9.1992    2.2845   61.2079 H       1  ZINC000929592477    0.4000
     45 H45       -11.2402   -0.0752   61.1458 H       1  ZINC000929592477    0.0900
     46 H46       -10.5370   -1.3392   62.2099 H       1  ZINC000929592477    0.0900
     47 H47       -11.1738    1.5855   62.8832 H       1  ZINC000929592477    0.0700
     48 H48       -11.5832    0.1171   63.8219 H       1  ZINC000929592477    0.0800
     49 H49        -7.3152    0.4112   65.2946 H       1  ZINC000929592477    0.1500
     50 H50        -9.0773    1.6662   68.8475 H       1  ZINC000929592477    0.4200
     51 H51       -11.1697    1.9891   67.8071 H       1  ZINC000929592477    0.2100
     52 H52        -7.8591   -0.3903   63.2519 H       1  ZINC000929592477    0.0900
     53 H53        -7.8235    1.3567   62.8840 H       1  ZINC000929592477    0.0800
@<TRIPOS>BOND
     1     1     2    2
     2     2     3   am
     3     2    16   am
     4     3     4    1
     5     3    30    1
     6     4    15   ar
     7     4     5   ar
     8     5     6   ar
     9     5    31    1
    10     6     7   ar
    11     6    32    1
    12     7     8    1
    13     7    14   ar
    14     8     9    1
    15     9    13    1
    16     9    10    1
    17     9    33    1
    18    10    11    1
    19    10    34    1
    20    10    35    1
    21    11    12    1
    22    11    36    1
    23    11    37    1
    24    12    13    1
    25    12    38    1
    26    12    39    1
    27    13    40    1
    28    13    41    1
    29    14    15   ar
    30    14    42    1
    31    15    43    1
    32    16    17    1
    33    16    44    1
    34    17    18    1
    35    17    29    1
    36    17    19    1
    37    19    20    1
    38    19    45    1
    39    19    46    1
    40    20    21    1
    41    20    47    1
    42    20    48    1
    43    21    22    1
    44    21    29    1
    45    22    28    1
    46    22    23    2
    47    23    24    1
    48    23    49    1
    49    24    25    2
    50    24    26   am
    51    26    27    1
    52    26    50    1
    53    27    28    2
    54    27    51    1
    55    29    52    1
    56    29    53    1
@<TRIPOS>SUBSTRUCTURE
     1 ZINC000929592477        1 TEMP              0 ****  ****    0 ROOT


##########                                Name:    ZINC001181473921
##########                DOCK_Rotatable_Bonds:                   9
##########                         Heavy_Atoms:                  24
##########                    Molecular_Weight:             357.431
##########                DOCK_Rotatable_Bonds:                   9
##########                       Formal_Charge:        -5.96046e-08
##########                     HBond_Acceptors:                   9
##########                        HBond_Donors:                   4
##########                         Heavy_Atoms:                  24
##########                          Grid_Score:          -29.166216
##########                     Grid_vdw_energy:          -24.909061
##########                      Grid_es_energy:           -4.257154
##########           Internal_energy_repulsive:           12.931495

@<TRIPOS>MOLECULE
ZINC001181473921
 47 48 1 0 0
SMALL
USER_CHARGES


@<TRIPOS>ATOM
      1 C1         -8.7521   -1.0458   59.8775 C.3     1  ZINC001181473921   -0.1300
      2 C2         -9.1437   -0.4174   61.1900 C.2     1  ZINC001181473921    0.1900
      3 C3         -8.4209   -0.6849   62.2987 C.2     1  ZINC001181473921   -0.2400
      4 C4         -8.7821   -0.0997   63.5286 C.2     1  ZINC001181473921    0.2500
      5 O5         -8.0667   -0.3579   64.6495 O.3     1  ZINC001181473921   -0.4600
      6 C6         -9.8777    0.7425   63.5735 C.2     1  ZINC001181473921   -0.3700
      7 C7        -10.5958    0.9894   62.3977 C.2     1  ZINC001181473921    0.5300
      8 O8        -11.5656    1.7312   62.4205 O.2     1  ZINC001181473921   -0.5500
      9 N9        -10.2162    0.4155   61.2409 N.am    1  ZINC001181473921   -0.5000
     10 C10       -10.9782    0.6847   60.0189 C.3     1  ZINC001181473921    0.1000
     11 C11       -10.4164    1.9308   59.3317 C.3     1  ZINC001181473921   -0.1600
     12 C12       -10.9534    2.0144   57.9260 C.2     1  ZINC001181473921    0.5200
     13 O13       -12.0275    2.5377   57.7173 O.2     1  ZINC001181473921   -0.5300
     14 N14       -10.2401    1.5078   56.9009 N.am    1  ZINC001181473921   -0.7200
     15 C15       -10.7629    1.5875   55.5346 C.3     1  ZINC001181473921    0.1400
     16 H16       -11.4043    2.4612   55.4185 H       1  ZINC001181473921    0.1000
     17 C17       -11.5267    0.2924   55.1628 C.3     1  ZINC001181473921   -0.1300
     18 C18       -11.4692    0.2486   53.6218 C.3     1  ZINC001181473921   -0.1500
     19 C19       -10.2482    1.0863   53.2034 C.3     1  ZINC001181473921   -0.0800
     20 H20       -10.5650    1.9228   52.5805 H       1  ZINC001181473921    0.0900
     21 C21        -9.2504    0.2132   52.4399 C.3     1  ZINC001181473921   -0.6200
     22 S22        -8.0481    1.2718   51.5888 S.o2    1  ZINC001181473921    2.6100
     23 N23        -6.9263    1.6394   52.7500 N.am    1  ZINC001181473921   -1.2500
     24 O24        -7.3212    0.5244   50.6232 O.2     1  ZINC001181473921   -0.9600
     25 O25        -8.6329    2.5238   51.2575 O.2     1  ZINC001181473921   -0.9600
     26 C26        -9.6061    1.6151   54.5050 C.3     1  ZINC001181473921   -0.1200
     27 H27        -8.6032   -0.2655   59.1312 H       1  ZINC001181473921    0.0900
     28 H28        -7.8268   -1.6076   60.0055 H       1  ZINC001181473921    0.1000
     29 H29        -9.5429   -1.7190   59.5467 H       1  ZINC001181473921    0.0900
     30 H30        -7.5685   -1.3458   62.2430 H       1  ZINC001181473921    0.1500
     31 H31        -7.2005   -0.7533   64.4809 H       1  ZINC001181473921    0.4100
     32 H32       -10.1756    1.2034   64.5037 H       1  ZINC001181473921    0.1500
     33 H33       -10.8984   -0.1687   59.3456 H       1  ZINC001181473921    0.1000
     34 H34       -12.0252    0.8505   60.2728 H       1  ZINC001181473921    0.1100
     35 H35       -10.7158    2.8189   59.8883 H       1  ZINC001181473921    0.1100
     36 H36        -9.3286    1.8701   59.3020 H       1  ZINC001181473921    0.1000
     37 H37        -9.3805    1.0904   57.0676 H       1  ZINC001181473921    0.4000
     38 H38       -11.0293   -0.5793   55.5880 H       1  ZINC001181473921    0.0700
     39 H39       -12.5602    0.3475   55.5046 H       1  ZINC001181473921    0.0800
     40 H40       -11.3507   -0.7801   53.2816 H       1  ZINC001181473921    0.0900
     41 H41       -12.3786    0.6785   53.2019 H       1  ZINC001181473921    0.0800
     42 H42        -8.7285   -0.4393   53.1400 H       1  ZINC001181473921    0.1400
     43 H43        -9.7839   -0.3925   51.7073 H       1  ZINC001181473921    0.1400
     44 H44        -6.4270    0.9300   53.1838 H       1  ZINC001181473921    0.4100
     45 H45        -6.7684    2.5643   52.9964 H       1  ZINC001181473921    0.4200
     46 H46        -9.2388    2.6314   54.3636 H       1  ZINC001181473921    0.0800
     47 H47        -8.7981    0.9576   54.8262 H       1  ZINC001181473921    0.0800
@<TRIPOS>BOND
     1     1     2    1
     2     1    27    1
     3     1    28    1
     4     1    29    1
     5     2     9    1
     6     2     3    2
     7     3     4    1
     8     3    30    1
     9     4     5    1
    10     4     6    2
    11     5    31    1
    12     6     7    1
    13     6    32    1
    14     7     8    2
    15     7     9   am
    16     9    10    1
    17    10    11    1
    18    10    33    1
    19    10    34    1
    20    11    12    1
    21    11    35    1
    22    11    36    1
    23    12    13    2
    24    12    14   am
    25    14    15    1
    26    14    37    1
    27    15    16    1
    28    15    26    1
    29    15    17    1
    30    17    18    1
    31    17    38    1
    32    17    39    1
    33    18    19    1
    34    18    40    1
    35    18    41    1
    36    19    20    1
    37    19    21    1
    38    19    26    1
    39    21    22    1
    40    21    42    1
    41    21    43    1
    42    22    23   am
    43    22    24    2
    44    22    25    2
    45    23    44    1
    46    23    45    1
    47    26    46    1
    48    26    47    1
@<TRIPOS>SUBSTRUCTURE
     1 ZINC001181473921        1 TEMP              0 ****  ****    0 ROOT


##########                                Name:    ZINC000156038173
##########                DOCK_Rotatable_Bonds:                  10
##########                         Heavy_Atoms:                  27
##########                    Molecular_Weight:             396.357
##########                DOCK_Rotatable_Bonds:                  10
##########                       Formal_Charge:         -0.00999981
##########                     HBond_Acceptors:                  10
##########                        HBond_Donors:                   1
##########                         Heavy_Atoms:                  27
##########                          Grid_Score:          -29.161789
##########                     Grid_vdw_energy:          -28.209721
##########                      Grid_es_energy:           -0.952069
##########           Internal_energy_repulsive:           25.320805

@<TRIPOS>MOLECULE
ZINC000156038173
 48 48 1 0 0
SMALL
USER_CHARGES


@<TRIPOS>ATOM
      1 C1         -8.9141    0.9463   59.1565 C.3     1  ZINC000156038173    0.0700
      2 N2         -9.4863   -0.2429   59.7925 N.am    1  ZINC000156038173   -0.6300
      3 C3         -9.0197   -0.6615   61.1167 C.3     1  ZINC000156038173    0.1500
      4 C4         -9.5224    0.3271   62.1706 C.3     1  ZINC000156038173   -0.1400
      5 C5         -9.0609   -0.1156   63.5352 C.2     1  ZINC000156038173    0.4700
      6 O6         -8.1846   -0.9410   63.6382 O.2     1  ZINC000156038173   -0.5000
      7 O7         -9.6235    0.4070   64.6362 O.3     1  ZINC000156038173   -0.3500
      8 C8         -8.7575    1.1622   65.5239 C.3     1  ZINC000156038173    0.1200
      9 C9         -8.0370    0.2018   66.4723 C.3     1  ZINC000156038173   -0.1800
     10 C10        -7.7257    1.9318   64.6968 C.3     1  ZINC000156038173   -0.1400
     11 C11        -9.5971    2.1487   66.3379 C.3     1  ZINC000156038173   -0.1800
     12 C12       -10.4419   -0.9518   59.1595 C.2     1  ZINC000156038173    0.7100
     13 O13       -10.9178   -1.9379   59.6881 O.2     1  ZINC000156038173   -0.5700
     14 N14       -10.8700   -0.5676   57.9407 N.am    1  ZINC000156038173   -0.7400
     15 C15       -11.9099   -1.3372   57.2534 C.3     1  ZINC000156038173    0.1700
     16 H16       -11.9726   -2.3340   57.6899 H       1  ZINC000156038173    0.1500
     17 C17       -11.5670   -1.4503   55.7903 C.ar    1  ZINC000156038173   -0.1300
     18 C18       -11.7136   -2.6598   55.1377 C.ar    1  ZINC000156038173   -0.0700
     19 C19       -11.3993   -2.7652   53.7954 C.ar    1  ZINC000156038173   -0.1000
     20 C20       -10.9380   -1.6614   53.1033 C.ar    1  ZINC000156038173   -0.1100
     21 C21       -10.7900   -0.4488   53.7540 C.ar    1  ZINC000156038173    0.0700
     22 F22       -10.3391    0.6307   53.0782 F       1  ZINC000156038173   -0.1200
     23 C23       -11.1106   -0.3416   55.0987 C.ar    1  ZINC000156038173    0.1000
     24 F24       -10.9670    0.8410   55.7359 F       1  ZINC000156038173   -0.1200
     25 C25       -13.2563   -0.6271   57.4082 C.3     1  ZINC000156038173    0.4500
     26 F26       -14.2557   -1.5727   57.6618 F       1  ZINC000156038173   -0.1700
     27 F27       -13.1874    0.2760   58.4745 F       1  ZINC000156038173   -0.1600
     28 F28       -13.5569    0.0647   56.2299 F       1  ZINC000156038173   -0.1700
     29 H29        -8.0488    0.6584   58.5595 H       1  ZINC000156038173    0.0600
     30 H30        -9.6619    1.4093   58.5126 H       1  ZINC000156038173    0.0700
     31 H31        -8.6059    1.6562   59.9241 H       1  ZINC000156038173    0.0800
     32 H32        -9.4043   -1.6568   61.3394 H       1  ZINC000156038173    0.1000
     33 H33        -7.9300   -0.6821   61.1282 H       1  ZINC000156038173    0.0900
     34 H34        -9.1251    1.3193   61.9569 H       1  ZINC000156038173    0.1100
     35 H35       -10.6117    0.3594   62.1482 H       1  ZINC000156038173    0.1100
     36 H36        -7.4388   -0.5010   65.8924 H       1  ZINC000156038173    0.0600
     37 H37        -7.3869    0.7688   67.1386 H       1  ZINC000156038173    0.0700
     38 H38        -8.7720   -0.3464   67.0615 H       1  ZINC000156038173    0.0800
     39 H39        -8.2390    2.6160   64.0210 H       1  ZINC000156038173    0.0700
     40 H40        -7.0756    2.4988   65.3631 H       1  ZINC000156038173    0.0800
     41 H41        -7.1276    1.2290   64.1167 H       1  ZINC000156038173    0.0700
     42 H42       -10.3321    1.6005   66.9272 H       1  ZINC000156038173    0.0800
     43 H43        -8.9469    2.7157   67.0043 H       1  ZINC000156038173    0.0700
     44 H44       -10.1103    2.8330   65.6622 H       1  ZINC000156038173    0.0600
     45 H45       -10.4894    0.2184   57.5185 H       1  ZINC000156038173    0.4100
     46 H46       -12.0736   -3.5235   55.6769 H       1  ZINC000156038173    0.1400
     47 H47       -11.5142   -3.7112   53.2872 H       1  ZINC000156038173    0.1500
     48 H48       -10.6925   -1.7452   52.0549 H       1  ZINC000156038173    0.1500
@<TRIPOS>BOND
     1     1     2    1
     2     1    29    1
     3     1    30    1
     4     1    31    1
     5     2     3    1
     6     2    12   am
     7     3     4    1
     8     3    32    1
     9     3    33    1
    10     4     5    1
    11     4    34    1
    12     4    35    1
    13     5     6    2
    14     5     7    1
    15     7     8    1
    16     8     9    1
    17     8    10    1
    18     8    11    1
    19     9    36    1
    20     9    37    1
    21     9    38    1
    22    10    39    1
    23    10    40    1
    24    10    41    1
    25    11    42    1
    26    11    43    1
    27    11    44    1
    28    12    13    2
    29    12    14   am
    30    14    15    1
    31    14    45    1
    32    15    16    1
    33    15    17    1
    34    15    25    1
    35    17    23   ar
    36    17    18   ar
    37    18    19   ar
    38    18    46    1
    39    19    20   ar
    40    19    47    1
    41    20    21   ar
    42    20    48    1
    43    21    22    1
    44    21    23   ar
    45    23    24    1
    46    25    26    1
    47    25    27    1
    48    25    28    1
@<TRIPOS>SUBSTRUCTURE
     1 ZINC000156038173        1 TEMP              0 ****  ****    0 ROOT


##########                                Name:    ZINC000329637067
##########                DOCK_Rotatable_Bonds:                   5
##########                         Heavy_Atoms:                  26
##########                    Molecular_Weight:             362.429
##########                DOCK_Rotatable_Bonds:                   5
##########                       Formal_Charge:           0.0199998
##########                     HBond_Acceptors:                   8
##########                        HBond_Donors:                   0
##########                         Heavy_Atoms:                  26
##########                          Grid_Score:          -29.116920
##########                     Grid_vdw_energy:          -27.454012
##########                      Grid_es_energy:           -1.662909
##########           Internal_energy_repulsive:           28.257057

@<TRIPOS>MOLECULE
ZINC000329637067
 52 54 1 0 0
SMALL
USER_CHARGES


@<TRIPOS>ATOM
      1 C1        -10.0008    1.9159   55.3104 C.3     1  ZINC000329637067   -0.1300
      2 C2        -10.3856    0.6735   54.5491 C.2     1  ZINC000329637067    0.2200
      3 C3        -11.5006   -0.0263   54.8920 C.2     1  ZINC000329637067   -0.2900
      4 C4        -11.8316   -1.1749   54.1671 C.2     1  ZINC000329637067    0.2800
      5 C5        -13.0620   -1.9671   54.5272 C.3     1  ZINC000329637067   -0.1200
      6 N6        -11.0653   -1.5629   53.1679 N.2     1  ZINC000329637067   -0.5500
      7 C7         -9.9721   -0.8719   52.8359 C.2     1  ZINC000329637067    0.6400
      8 O8         -9.2797   -1.2523   51.9069 O.2     1  ZINC000329637067   -0.5300
      9 N9         -9.6263    0.2418   53.5085 N.am    1  ZINC000329637067   -0.5000
     10 C10        -8.4223    0.9832   53.1251 C.3     1  ZINC000329637067    0.0700
     11 C11        -8.7729    1.9992   52.0687 C.2     1  ZINC000329637067    0.5100
     12 O12        -9.9253    2.3474   51.9212 O.2     1  ZINC000329637067   -0.5200
     13 N13        -7.8061    2.5208   51.2880 N.am    1  ZINC000329637067   -0.6100
     14 C14        -8.1325    3.5122   50.2539 C.3     1  ZINC000329637067    0.1000
     15 C15        -7.2508    4.7479   50.4596 C.3     1  ZINC000329637067   -0.1400
     16 C16        -5.7808    4.3229   50.4812 C.3     1  ZINC000329637067   -0.1000
     17 C17        -5.5433    3.3606   51.6472 C.3     1  ZINC000329637067   -0.1200
     18 H18        -5.8146    3.8490   52.5831 H       1  ZINC000329637067    0.1000
     19 C19        -4.0887    2.9686   51.6876 C.2     1  ZINC000329637067    0.5300
     20 O20        -3.7504    1.8571   51.3400 O.2     1  ZINC000329637067   -0.5300
     21 N21        -3.1639    3.8533   52.1102 N.am    1  ZINC000329637067   -0.6200
     22 C22        -3.5512    5.2055   52.5428 C.3     1  ZINC000329637067    0.0800
     23 C23        -2.9175    5.4750   53.9123 C.3     1  ZINC000329637067    0.0500
     24 O24        -1.5147    5.2082   53.8425 O.3     1  ZINC000329637067   -0.3800
     25 C25        -1.1919    3.8484   53.5416 C.3     1  ZINC000329637067    0.0500
     26 C26        -1.7379    3.4936   52.1584 C.3     1  ZINC000329637067    0.0700
     27 C27        -6.4049    2.1137   51.4590 C.3     1  ZINC000329637067    0.1200
     28 H28        -9.9060    2.7519   54.6174 H       1  ZINC000329637067    0.0900
     29 H29       -10.7696    2.1419   56.0494 H       1  ZINC000329637067    0.1000
     30 H30        -9.0486    1.7525   55.8149 H       1  ZINC000329637067    0.0900
     31 H31       -12.1212    0.3007   55.7132 H       1  ZINC000329637067    0.1600
     32 H32       -13.9155   -1.5880   53.9651 H       1  ZINC000329637067    0.1000
     33 H33       -12.9028   -3.0171   54.2819 H       1  ZINC000329637067    0.0900
     34 H34       -13.2576   -1.8690   55.5950 H       1  ZINC000329637067    0.0900
     35 H35        -8.0158    1.4929   53.9986 H       1  ZINC000329637067    0.1200
     36 H36        -7.6792    0.2902   52.7303 H       1  ZINC000329637067    0.1300
     37 H37        -7.9427    3.0878   49.2681 H       1  ZINC000329637067    0.0800
     38 H38        -9.1822    3.7944   50.3365 H       1  ZINC000329637067    0.0900
     39 H39        -7.4142    5.4514   49.6432 H       1  ZINC000329637067    0.0900
     40 H40        -7.5061    5.2233   51.4067 H       1  ZINC000329637067    0.0700
     41 H41        -5.5328    3.8255   49.5436 H       1  ZINC000329637067    0.0800
     42 H42        -5.1500    5.2035   50.6029 H       1  ZINC000329637067    0.0800
     43 H43        -3.1916    5.9389   51.8211 H       1  ZINC000329637067    0.0800
     44 H44        -4.6365    5.2689   52.6216 H       1  ZINC000329637067    0.1000
     45 H45        -3.0765    6.5175   54.1882 H       1  ZINC000329637067    0.1100
     46 H46        -3.3747    4.8261   54.6592 H       1  ZINC000329637067    0.0600
     47 H47        -0.1094    3.7206   53.5508 H       1  ZINC000329637067    0.1100
     48 H48        -1.6428    3.1936   54.2872 H       1  ZINC000329637067    0.0600
     49 H49        -1.6212    2.4246   51.9808 H       1  ZINC000329637067    0.1000
     50 H50        -1.1975    4.0542   51.3956 H       1  ZINC000329637067    0.0800
     51 H51        -6.3139    1.4711   52.3349 H       1  ZINC000329637067    0.1000
     52 H52        -6.0765    1.5733   50.5712 H       1  ZINC000329637067    0.0800
@<TRIPOS>BOND
     1     1     2    1
     2     1    28    1
     3     1    29    1
     4     1    30    1
     5     2     9    1
     6     2     3    2
     7     3     4    1
     8     3    31    1
     9     4     5    1
    10     4     6    2
    11     5    32    1
    12     5    33    1
    13     5    34    1
    14     6     7    1
    15     7     8    2
    16     7     9   am
    17     9    10    1
    18    10    11    1
    19    10    35    1
    20    10    36    1
    21    11    12    2
    22    11    13   am
    23    13    27    1
    24    13    14    1
    25    14    15    1
    26    14    37    1
    27    14    38    1
    28    15    16    1
    29    15    39    1
    30    15    40    1
    31    16    17    1
    32    16    41    1
    33    16    42    1
    34    17    18    1
    35    17    19    1
    36    17    27    1
    37    19    20    2
    38    19    21   am
    39    21    26    1
    40    21    22    1
    41    22    23    1
    42    22    43    1
    43    22    44    1
    44    23    24    1
    45    23    45    1
    46    23    46    1
    47    24    25    1
    48    25    26    1
    49    25    47    1
    50    25    48    1
    51    26    49    1
    52    26    50    1
    53    27    51    1
    54    27    52    1
@<TRIPOS>SUBSTRUCTURE
     1 ZINC000329637067        1 TEMP              0 ****  ****    0 ROOT


##########                                Name:    ZINC000186316242
##########                DOCK_Rotatable_Bonds:                   7
##########                         Heavy_Atoms:                  28
##########                    Molecular_Weight:             392.525
##########                DOCK_Rotatable_Bonds:                   7
##########                       Formal_Charge:         -0.00999981
##########                     HBond_Acceptors:                   6
##########                        HBond_Donors:                   0
##########                         Heavy_Atoms:                  28
##########                          Grid_Score:          -29.106070
##########                     Grid_vdw_energy:          -28.557713
##########                      Grid_es_energy:           -0.548357
##########           Internal_energy_repulsive:           21.886412

@<TRIPOS>MOLECULE
ZINC000186316242
 52 55 1 0 0
SMALL
USER_CHARGES


@<TRIPOS>ATOM
      1 C1         -4.2103    5.3812   53.0772 C.3     1  ZINC000186316242   -0.1500
      2 C2         -3.7540    3.9303   53.2437 C.3     1  ZINC000186316242    0.1000
      3 N3         -2.9200    3.5466   52.1020 N.am    1  ZINC000186316242   -0.5900
      4 C4         -3.4716    2.9163   51.0462 C.2     1  ZINC000186316242    0.5900
      5 O5         -2.7792    2.5977   50.0983 O.2     1  ZINC000186316242   -0.5000
      6 C6         -4.9135    2.6132   51.0399 C.2     1  ZINC000186316242    0.0100
      7 C7         -5.4038    1.3741   51.3265 C.2     1  ZINC000186316242   -0.2100
      8 S8         -7.1101    1.4122   51.2183 S.3     1  ZINC000186316242    0.2000
      9 C9         -7.0640    3.1177   50.7876 C.2     1  ZINC000186316242    0.0700
     10 C10        -8.2476    3.9588   50.5055 C.ar    1  ZINC000186316242    0.1900
     11 C11        -9.5163    3.5145   50.8766 C.ar    1  ZINC000186316242   -0.1500
     12 C12       -10.6141    4.3132   50.6062 C.ar    1  ZINC000186316242   -0.0700
     13 C13       -10.4078    5.5306   49.9735 C.ar    1  ZINC000186316242   -0.1600
     14 C14        -9.1216    5.9096   49.6330 C.ar    1  ZINC000186316242    0.1100
     15 N15        -8.0932    5.1337   49.9058 N.ar    1  ZINC000186316242   -0.4500
     16 N16        -5.8324    3.5256   50.7609 N.2     1  ZINC000186316242   -0.3900
     17 C17        -1.4863    3.8479   52.1081 C.3     1  ZINC000186316242    0.1400
     18 H18        -1.2022    4.3132   53.0519 H       1  ZINC000186316242    0.1000
     19 C19        -1.1277    4.7744   50.9237 C.3     1  ZINC000186316242   -0.1300
     20 C20         0.2372    4.2163   50.4481 C.3     1  ZINC000186316242    0.0400
     21 N21         0.0808    2.7487   50.6144 N.3     1  ZINC000186316242   -0.4900
     22 C22         1.3892    2.0837   50.6775 C.3     1  ZINC000186316242    0.0800
     23 C23         1.9508    1.9471   49.2857 C.ar    1  ZINC000186316242   -0.0700
     24 C24         2.7017    2.9713   48.7398 C.ar    1  ZINC000186316242   -0.1000
     25 C25         3.2168    2.8460   47.4632 C.ar    1  ZINC000186316242   -0.1200
     26 C26         2.9816    1.6963   46.7327 C.ar    1  ZINC000186316242   -0.1200
     27 C27         2.2316    0.6717   47.2790 C.ar    1  ZINC000186316242   -0.1200
     28 C28         1.7199    0.7952   48.5572 C.ar    1  ZINC000186316242   -0.1100
     29 C29        -0.6691    2.5630   51.8783 C.3     1  ZINC000186316242    0.0400
     30 H30        -4.8308    5.6666   53.9267 H       1  ZINC000186316242    0.0700
     31 H31        -3.3380    6.0331   53.0290 H       1  ZINC000186316242    0.0500
     32 H32        -4.7870    5.4774   52.1573 H       1  ZINC000186316242    0.0400
     33 H33        -3.1772    3.8341   54.1635 H       1  ZINC000186316242    0.1200
     34 H34        -4.6262    3.2783   53.2918 H       1  ZINC000186316242    0.0700
     35 H35        -4.8106    0.5082   51.5808 H       1  ZINC000186316242    0.1900
     36 H36        -9.6406    2.5606   51.3675 H       1  ZINC000186316242    0.1400
     37 H37       -11.6090    3.9956   50.8813 H       1  ZINC000186316242    0.1400
     38 H38       -11.2438    6.1763   49.7484 H       1  ZINC000186316242    0.1400
     39 H39        -8.9582    6.8565   49.1400 H       1  ZINC000186316242    0.1600
     40 H40        -1.8735    4.6955   50.1326 H       1  ZINC000186316242    0.0900
     41 H41        -1.0268    5.8069   51.2584 H       1  ZINC000186316242    0.0700
     42 H42         0.4126    4.4685   49.4023 H       1  ZINC000186316242    0.0800
     43 H43         1.0457    4.5907   51.0759 H       1  ZINC000186316242    0.0400
     44 H44         2.0697    2.6778   51.2873 H       1  ZINC000186316242    0.0400
     45 H45         1.2732    1.0948   51.1211 H       1  ZINC000186316242    0.0800
     46 H46         2.8854    3.8696   49.3105 H       1  ZINC000186316242    0.1200
     47 H47         3.8029    3.6465   47.0364 H       1  ZINC000186316242    0.1200
     48 H48         3.3835    1.5986   45.7350 H       1  ZINC000186316242    0.1200
     49 H49         2.0475   -0.2266   46.7082 H       1  ZINC000186316242    0.1200
     50 H50         1.1339   -0.0053   48.9841 H       1  ZINC000186316242    0.1200
     51 H51         0.0262    2.4101   52.7036 H       1  ZINC000186316242    0.0500
     52 H52        -1.3391    1.7078   51.7903 H       1  ZINC000186316242    0.0800
@<TRIPOS>BOND
     1     1     2    1
     2     1    30    1
     3     1    31    1
     4     1    32    1
     5     2     3    1
     6     2    33    1
     7     2    34    1
     8     3     4   am
     9     3    17    1
    10     4     5    2
    11     4     6    1
    12     6    16    1
    13     6     7    2
    14     7     8    1
    15     7    35    1
    16     8     9    1
    17     9    10    1
    18     9    16    2
    19    10    15   ar
    20    10    11   ar
    21    11    12   ar
    22    11    36    1
    23    12    13   ar
    24    12    37    1
    25    13    14   ar
    26    13    38    1
    27    14    15   ar
    28    14    39    1
    29    17    18    1
    30    17    29    1
    31    17    19    1
    32    19    20    1
    33    19    40    1
    34    19    41    1
    35    20    21    1
    36    20    42    1
    37    20    43    1
    38    21    22    1
    39    21    29    1
    40    22    23    1
    41    22    44    1
    42    22    45    1
    43    23    28   ar
    44    23    24   ar
    45    24    25   ar
    46    24    46    1
    47    25    26   ar
    48    25    47    1
    49    26    27   ar
    50    26    48    1
    51    27    28   ar
    52    27    49    1
    53    28    50    1
    54    29    51    1
    55    29    52    1
@<TRIPOS>SUBSTRUCTURE
     1 ZINC000186316242        1 TEMP              0 ****  ****    0 ROOT


##########                                Name:    ZINC001045438664
##########                DOCK_Rotatable_Bonds:                   6
##########                         Heavy_Atoms:                  26
##########                    Molecular_Weight:             352.439
##########                DOCK_Rotatable_Bonds:                   6
##########                       Formal_Charge:          -0.0099999
##########                     HBond_Acceptors:                   7
##########                        HBond_Donors:                   2
##########                         Heavy_Atoms:                  26
##########                          Grid_Score:          -29.091942
##########                     Grid_vdw_energy:          -28.703001
##########                      Grid_es_energy:           -0.388941
##########           Internal_energy_repulsive:           19.613222

@<TRIPOS>MOLECULE
ZINC001045438664
 50 53 1 0 0
SMALL
USER_CHARGES


@<TRIPOS>ATOM
      1 C1        -15.8486   -3.2629   59.3706 C.3     1  ZINC001045438664   -0.1100
      2 C2        -14.8206   -2.4317   60.0941 C.ar    1  ZINC001045438664    0.2100
      3 C3        -13.5498   -2.2844   59.5745 C.ar    1  ZINC001045438664   -0.3000
      4 C4        -12.6314   -1.5041   60.2805 C.ar    1  ZINC001045438664    0.4500
      5 N5        -11.3441   -1.3254   59.8006 N.pl3   1  ZINC001045438664   -0.7100
      6 C6        -10.9084   -0.0020   59.3478 C.3     1  ZINC001045438664    0.1500
      7 H7        -11.4486    0.7670   59.8999 H       1  ZINC001045438664    0.0900
      8 C8        -11.1969    0.1460   57.8526 C.3     1  ZINC001045438664   -0.1300
      9 C9        -10.7419    1.5281   57.3797 C.3     1  ZINC001045438664   -0.1200
     10 C10        -9.2400    1.6827   57.6270 C.3     1  ZINC001045438664   -0.1200
     11 C11        -8.9514    1.5347   59.1223 C.3     1  ZINC001045438664   -0.1300
     12 C12        -9.4064    0.1526   59.5951 C.3     1  ZINC001045438664    0.1400
     13 H13        -8.8662   -0.6164   59.0430 H       1  ZINC001045438664    0.1000
     14 N14        -9.1302    0.0109   61.0268 N.am    1  ZINC001045438664   -0.7200
     15 C15        -9.7280    0.8318   61.9130 C.2     1  ZINC001045438664    0.5700
     16 O16       -10.4953    1.6907   61.5240 O.2     1  ZINC001045438664   -0.5200
     17 C17        -9.4506    0.6877   63.3579 C.ar    1  ZINC001045438664   -0.2500
     18 C18       -10.1892    1.4031   64.3072 C.ar    1  ZINC001045438664    0.1900
     19 N19        -9.9079    1.2435   65.5885 N.ar    1  ZINC001045438664   -0.5200
     20 C20        -8.9485    0.4260   65.9758 C.ar    1  ZINC001045438664    0.3200
     21 N21        -8.2281   -0.2665   65.1154 N.ar    1  ZINC001045438664   -0.5200
     22 C22        -8.4457   -0.1722   63.8153 C.ar    1  ZINC001045438664    0.2100
     23 N23       -13.0126   -0.9352   61.4202 N.ar    1  ZINC001045438664   -0.5800
     24 C24       -14.2363   -1.1028   61.8792 C.ar    1  ZINC001045438664    0.4000
     25 C25       -14.6300   -0.4410   63.1746 C.3     1  ZINC001045438664   -0.1100
     26 C26       -14.2237    1.0207   63.3731 C.3     1  ZINC001045438664   -0.1500
     27 C27       -15.6879    0.6626   63.1110 C.3     1  ZINC001045438664   -0.1500
     28 N28       -15.1272   -1.8286   61.2343 N.ar    1  ZINC001045438664   -0.5600
     29 H29       -16.4014   -2.6321   58.6745 H       1  ZINC001045438664    0.0800
     30 H30       -15.3492   -4.0603   58.8202 H       1  ZINC001045438664    0.0800
     31 H31       -16.5387   -3.6975   60.0938 H       1  ZINC001045438664    0.0800
     32 H32       -13.2729   -2.7609   58.6458 H       1  ZINC001045438664    0.1400
     33 H33       -10.7314   -2.0765   59.7643 H       1  ZINC001045438664    0.4100
     34 H34       -10.6567   -0.6230   57.3004 H       1  ZINC001045438664    0.0700
     35 H35       -12.2670    0.0358   57.6764 H       1  ZINC001045438664    0.0700
     36 H36       -10.9474    1.6335   56.3145 H       1  ZINC001045438664    0.0700
     37 H37       -11.2821    2.2971   57.9319 H       1  ZINC001045438664    0.0700
     38 H38        -8.6997    0.9137   57.0749 H       1  ZINC001045438664    0.0700
     39 H39        -8.9156    2.6673   57.2901 H       1  ZINC001045438664    0.0700
     40 H40        -7.8813    1.6449   59.2984 H       1  ZINC001045438664    0.0800
     41 H41        -9.4916    2.3037   59.6744 H       1  ZINC001045438664    0.0700
     42 H42        -8.5169   -0.6736   61.3370 H       1  ZINC001045438664    0.4000
     43 H43       -10.9762    2.0748   63.9977 H       1  ZINC001045438664    0.1700
     44 H44        -8.7460    0.3204   67.0314 H       1  ZINC001045438664    0.2100
     45 H45        -7.8516   -0.7427   63.1167 H       1  ZINC001045438664    0.1800
     46 H46       -14.6294   -1.0875   64.0521 H       1  ZINC001045438664    0.1300
     47 H47       -13.9554    1.3359   64.3815 H       1  ZINC001045438664    0.1000
     48 H48       -13.6716    1.5036   62.5669 H       1  ZINC001045438664    0.1100
     49 H49       -16.0991    0.9099   62.1323 H       1  ZINC001045438664    0.1000
     50 H50       -16.3829    0.7423   63.9469 H       1  ZINC001045438664    0.1000
@<TRIPOS>BOND
     1     1     2    1
     2     1    29    1
     3     1    30    1
     4     1    31    1
     5     2    28   ar
     6     2     3   ar
     7     3     4   ar
     8     3    32    1
     9     4     5    1
    10     4    23   ar
    11     5     6    1
    12     5    33    1
    13     6     7    1
    14     6    12    1
    15     6     8    1
    16     8     9    1
    17     8    34    1
    18     8    35    1
    19     9    10    1
    20     9    36    1
    21     9    37    1
    22    10    11    1
    23    10    38    1
    24    10    39    1
    25    11    12    1
    26    11    40    1
    27    11    41    1
    28    12    13    1
    29    12    14    1
    30    14    15   am
    31    14    42    1
    32    15    16    2
    33    15    17    1
    34    17    22   ar
    35    17    18   ar
    36    18    19   ar
    37    18    43    1
    38    19    20   ar
    39    20    21   ar
    40    20    44    1
    41    21    22   ar
    42    22    45    1
    43    23    24   ar
    44    24    25    1
    45    24    28   ar
    46    25    27    1
    47    25    26    1
    48    25    46    1
    49    26    27    1
    50    26    47    1
    51    26    48    1
    52    27    49    1
    53    27    50    1
@<TRIPOS>SUBSTRUCTURE
     1 ZINC001045438664        1 TEMP              0 ****  ****    0 ROOT


##########                                Name:    ZINC000089894387
##########                DOCK_Rotatable_Bonds:                   8
##########                         Heavy_Atoms:                  22
##########                    Molecular_Weight:             326.823
##########                DOCK_Rotatable_Bonds:                   8
##########                       Formal_Charge:          -0.0300003
##########                     HBond_Acceptors:                   6
##########                        HBond_Donors:                   2
##########                         Heavy_Atoms:                  22
##########                          Grid_Score:          -29.066000
##########                     Grid_vdw_energy:          -29.109837
##########                      Grid_es_energy:            0.043836
##########           Internal_energy_repulsive:            9.968885

@<TRIPOS>MOLECULE
ZINC000089894387
 45 46 1 0 0
SMALL
USER_CHARGES


@<TRIPOS>ATOM
      1 C1          0.0251    3.9138   52.8225 C.3     1  ZINC000089894387   -0.1700
      2 C2         -0.5599    3.5532   51.4555 C.3     1  ZINC000089894387    0.1700
      3 H3         -0.3171    4.3372   50.7382 H       1  ZINC000089894387    0.0900
      4 N4          0.0090    2.2821   51.0008 N.am    1  ZINC000089894387   -0.7400
      5 C5          1.1964    2.2649   50.3635 C.2     1  ZINC000089894387    0.7100
      6 O6          1.7948    3.3044   50.1645 O.2     1  ZINC000089894387   -0.5900
      7 N7          1.7206    1.0953   49.9466 N.am    1  ZINC000089894387   -0.7500
      8 C8          3.0121    1.0763   49.2554 C.3     1  ZINC000089894387    0.1400
      9 C9          2.8130    1.4743   47.7915 C.3     1  ZINC000089894387    0.0500
     10 O10         2.5309    0.3083   47.0151 O.3     1  ZINC000089894387   -0.3100
     11 C11         2.2257    0.4987   45.7045 C.ar    1  ZINC000089894387    0.1400
     12 C12         3.1617    1.0590   44.8476 C.ar    1  ZINC000089894387   -0.2100
     13 C13         2.8496    1.2519   43.5155 C.ar    1  ZINC000089894387   -0.0700
     14 C14         1.6056    0.8871   43.0357 C.ar    1  ZINC000089894387   -0.1500
     15 C15         0.6694    0.3281   43.8883 C.ar    1  ZINC000089894387    0.0000
     16 Cl16       -0.8919   -0.1290   43.2827 Cl      1  ZINC000089894387   -0.0600
     17 C17         0.9796    0.1276   45.2205 C.ar    1  ZINC000089894387   -0.1500
     18 C18        -2.0797    3.4198   51.5702 C.3     1  ZINC000089894387   -0.1000
     19 C19        -2.7023    4.8052   51.7681 C.3     1  ZINC000089894387   -0.1600
     20 C20        -4.2269    4.6708   51.8029 C.3     1  ZINC000089894387    0.0600
     21 O21        -4.6776    4.0595   50.5924 O.3     1  ZINC000089894387   -0.3800
     22 C22        -4.1652    2.7429   50.3776 C.3     1  ZINC000089894387    0.0600
     23 C23        -2.6381    2.8000   50.2855 C.3     1  ZINC000089894387   -0.1500
     24 H24        -0.2177    3.1298   53.5399 H       1  ZINC000089894387    0.0600
     25 H25         1.1078    4.0089   52.7407 H       1  ZINC000089894387    0.0600
     26 H26        -0.3981    4.8596   53.1608 H       1  ZINC000089894387    0.0700
     27 H27        -0.4689    1.4529   51.1585 H       1  ZINC000089894387    0.3900
     28 H28         1.2426    0.2660   50.1042 H       1  ZINC000089894387    0.4000
     29 H29         3.6910    1.7817   49.7345 H       1  ZINC000089894387    0.0800
     30 H30         3.4359    0.0733   49.3047 H       1  ZINC000089894387    0.0900
     31 H31         1.9793    2.1723   47.7149 H       1  ZINC000089894387    0.0900
     32 H32         3.7200    1.9492   47.4174 H       1  ZINC000089894387    0.0700
     33 H33         4.1337    1.3447   45.2216 H       1  ZINC000089894387    0.1300
     34 H34         3.5781    1.6885   42.8486 H       1  ZINC000089894387    0.1400
     35 H35         1.3637    1.0387   41.9942 H       1  ZINC000089894387    0.1400
     36 H36         0.2493   -0.3089   45.8857 H       1  ZINC000089894387    0.1400
     37 H37        -2.3266    2.7828   52.4196 H       1  ZINC000089894387    0.0800
     38 H38        -2.3525    5.2307   52.7088 H       1  ZINC000089894387    0.0700
     39 H39        -2.4128    5.4559   50.9429 H       1  ZINC000089894387    0.0800
     40 H40        -4.5180    4.0529   52.6524 H       1  ZINC000089894387    0.0500
     41 H41        -4.6768    5.6588   51.9007 H       1  ZINC000089894387    0.0900
     42 H42        -4.4555    2.0999   51.2085 H       1  ZINC000089894387    0.0500
     43 H43        -4.5707    2.3422   49.4487 H       1  ZINC000089894387    0.1000
     44 H44        -2.3473    3.4101   49.4304 H       1  ZINC000089894387    0.0800
     45 H45        -2.2425    1.7913   50.1658 H       1  ZINC000089894387    0.0800
@<TRIPOS>BOND
     1     1     2    1
     2     1    24    1
     3     1    25    1
     4     1    26    1
     5     2     3    1
     6     2     4    1
     7     2    18    1
     8     4     5   am
     9     4    27    1
    10     5     6    2
    11     5     7   am
    12     7     8    1
    13     7    28    1
    14     8     9    1
    15     8    29    1
    16     8    30    1
    17     9    10    1
    18     9    31    1
    19     9    32    1
    20    10    11    1
    21    11    17   ar
    22    11    12   ar
    23    12    13   ar
    24    12    33    1
    25    13    14   ar
    26    13    34    1
    27    14    15   ar
    28    14    35    1
    29    15    16    1
    30    15    17   ar
    31    17    36    1
    32    18    23    1
    33    18    19    1
    34    18    37    1
    35    19    20    1
    36    19    38    1
    37    19    39    1
    38    20    21    1
    39    20    40    1
    40    20    41    1
    41    21    22    1
    42    22    23    1
    43    22    42    1
    44    22    43    1
    45    23    44    1
    46    23    45    1
@<TRIPOS>SUBSTRUCTURE
     1 ZINC000089894387        1 TEMP              0 ****  ****    0 ROOT


##########                                Name:    ZINC001023148918
##########                DOCK_Rotatable_Bonds:                   6
##########                         Heavy_Atoms:                  25
##########                    Molecular_Weight:             348.402
##########                DOCK_Rotatable_Bonds:                   6
##########                       Formal_Charge:           0.0199999
##########                     HBond_Acceptors:                   8
##########                        HBond_Donors:                   2
##########                         Heavy_Atoms:                  25
##########                          Grid_Score:          -29.055210
##########                     Grid_vdw_energy:          -26.221931
##########                      Grid_es_energy:           -2.833278
##########           Internal_energy_repulsive:           13.282413

@<TRIPOS>MOLECULE
ZINC001023148918
 49 52 1 0 0
SMALL
USER_CHARGES


@<TRIPOS>ATOM
      1 C1         -4.9919    1.6242   66.4753 C.3     1  ZINC001023148918   -0.0700
      2 C2         -6.4567    1.4939   66.1460 C.2     1  ZINC001023148918    0.0200
      3 N3         -7.4479    1.5776   66.9963 N.2     1  ZINC001023148918   -0.2700
      4 N4         -8.5762    1.4228   66.4025 N.pl3   1  ZINC001023148918   -0.2500
      5 C5         -9.8865    1.4582   67.0567 C.3     1  ZINC001023148918    0.0800
      6 C6         -8.3679    1.2202   65.0677 C.2     1  ZINC001023148918   -0.0400
      7 C7         -9.3949    1.0015   64.0367 C.2     1  ZINC001023148918    0.6000
      8 O8        -10.5738    1.0620   64.3301 O.2     1  ZINC001023148918   -0.5300
      9 N9         -9.0293    0.7344   62.7672 N.am    1  ZINC001023148918   -0.7000
     10 C10       -10.0518    0.5168   61.7409 C.3     1  ZINC001023148918    0.1500
     11 H11       -11.0328    0.8316   62.0967 H       1  ZINC001023148918    0.1200
     12 C12       -10.0752   -0.9638   61.2855 C.3     1  ZINC001023148918    0.1000
     13 N13       -10.6371   -0.9307   59.9230 N.am    1  ZINC001023148918   -0.6200
     14 C14       -11.2640   -1.9525   59.3069 C.2     1  ZINC001023148918    0.5400
     15 O15       -11.4024   -3.0127   59.8794 O.2     1  ZINC001023148918   -0.5200
     16 C16       -11.7928   -1.7775   57.9067 C.3     1  ZINC001023148918   -0.1400
     17 H17       -11.5740   -0.7764   57.5350 H       1  ZINC001023148918    0.1100
     18 C18       -13.3157   -2.0614   57.8553 C.3     1  ZINC001023148918   -0.1400
     19 C19       -13.4078   -3.2743   56.8814 C.3     1  ZINC001023148918    0.0600
     20 H20       -14.3104   -3.8788   56.9717 H       1  ZINC001023148918    0.1300
     21 C21       -13.1367   -2.6861   55.4641 C.3     1  ZINC001023148918   -0.1500
     22 C22       -11.6156   -2.3901   55.5007 C.3     1  ZINC001023148918   -0.1500
     23 C23       -11.2032   -2.8609   56.9545 C.3     1  ZINC001023148918    0.0900
     24 H24       -10.1472   -3.0964   57.0874 H       1  ZINC001023148918    0.1400
     25 O25       -12.1484   -3.9668   57.1676 O.3     1  ZINC001023148918   -0.3600
     26 C26       -10.4012    0.4017   59.3480 C.3     1  ZINC001023148918    0.0700
     27 C27        -9.6791    1.2434   60.4217 C.3     1  ZINC001023148918    0.0900
     28 H28        -8.6006    1.2264   60.2642 H       1  ZINC001023148918    0.0800
     29 O29       -10.1668    2.5866   60.4235 O.3     1  ZINC001023148918   -0.5500
     30 C30        -6.9978    1.2685   64.8782 C.2     1  ZINC001023148918   -0.1800
     31 H31        -4.6936    2.6696   66.3979 H       1  ZINC001023148918    0.0800
     32 H32        -4.8149    1.2701   67.4909 H       1  ZINC001023148918    0.0700
     33 H33        -4.4077    1.0268   65.7753 H       1  ZINC001023148918    0.0800
     34 H34       -10.2338    2.4895   67.1190 H       1  ZINC001023148918    0.0900
     35 H35       -10.5979    0.8697   66.4772 H       1  ZINC001023148918    0.1100
     36 H36        -9.8028    1.0417   68.0604 H       1  ZINC001023148918    0.0900
     37 H37        -8.0893    0.6863   62.5333 H       1  ZINC001023148918    0.4100
     38 H38        -9.0645   -1.3717   61.2693 H       1  ZINC001023148918    0.0800
     39 H39       -10.7125   -1.5533   61.9446 H       1  ZINC001023148918    0.0900
     40 H40       -13.6920   -2.3295   58.8425 H       1  ZINC001023148918    0.0800
     41 H41       -13.8553   -1.2030   57.4552 H       1  ZINC001023148918    0.0900
     42 H42       -13.3691   -3.4186   54.6912 H       1  ZINC001023148918    0.0800
     43 H43       -13.7051   -1.7686   55.3117 H       1  ZINC001023148918    0.0800
     44 H44       -11.0901   -2.9750   54.7459 H       1  ZINC001023148918    0.0800
     45 H45       -11.4262   -1.3251   55.3665 H       1  ZINC001023148918    0.0800
     46 H46        -9.7747    0.3165   58.4599 H       1  ZINC001023148918    0.0800
     47 H47       -11.3521    0.8678   59.0900 H       1  ZINC001023148918    0.0900
     48 H48        -9.8667    3.1130   61.1771 H       1  ZINC001023148918    0.3900
     49 H49        -6.4607    1.1505   63.9487 H       1  ZINC001023148918    0.1600
@<TRIPOS>BOND
     1     1     2    1
     2     1    31    1
     3     1    32    1
     4     1    33    1
     5     2    30    1
     6     2     3    2
     7     3     4    1
     8     4     5    1
     9     4     6    1
    10     5    34    1
    11     5    35    1
    12     5    36    1
    13     6     7    1
    14     6    30    2
    15     7     8    2
    16     7     9   am
    17     9    10    1
    18     9    37    1
    19    10    11    1
    20    10    27    1
    21    10    12    1
    22    12    13    1
    23    12    38    1
    24    12    39    1
    25    13    14   am
    26    13    26    1
    27    14    15    2
    28    14    16    1
    29    16    17    1
    30    16    23    1
    31    16    18    1
    32    18    19    1
    33    18    40    1
    34    18    41    1
    35    19    20    1
    36    19    25    1
    37    19    21    1
    38    21    22    1
    39    21    42    1
    40    21    43    1
    41    22    23    1
    42    22    44    1
    43    22    45    1
    44    23    24    1
    45    23    25    1
    46    26    27    1
    47    26    46    1
    48    26    47    1
    49    27    28    1
    50    27    29    1
    51    29    48    1
    52    30    49    1
@<TRIPOS>SUBSTRUCTURE
     1 ZINC001023148918        1 TEMP              0 ****  ****    0 ROOT


##########                                Name:    ZINC000986832075
##########                DOCK_Rotatable_Bonds:                   7
##########                         Heavy_Atoms:                  25
##########                    Molecular_Weight:             347.433
##########                DOCK_Rotatable_Bonds:                   7
##########                       Formal_Charge:          -0.0200006
##########                     HBond_Acceptors:                   6
##########                        HBond_Donors:                   1
##########                         Heavy_Atoms:                  25
##########                          Grid_Score:          -29.048748
##########                     Grid_vdw_energy:          -28.953074
##########                      Grid_es_energy:           -0.095674
##########           Internal_energy_repulsive:           42.117786

@<TRIPOS>MOLECULE
ZINC000986832075
 51 53 1 0 0
SMALL
USER_CHARGES


@<TRIPOS>ATOM
      1 C1        -13.8543   -0.4579   53.1068 C.3     1  ZINC000986832075   -0.1700
      2 C2        -12.5919   -1.1938   53.5604 C.3     1  ZINC000986832075    0.1500
      3 H3        -12.4533   -2.0869   52.9513 H       1  ZINC000986832075    0.0900
      4 N4        -11.4314   -0.3129   53.4068 N.am    1  ZINC000986832075   -0.7200
      5 C5        -10.3870   -0.7006   52.6484 C.2     1  ZINC000986832075    0.5600
      6 O6        -10.4083   -1.7802   52.0908 O.2     1  ZINC000986832075   -0.5100
      7 C7         -9.2138    0.1886   52.4946 C.ar    1  ZINC000986832075   -0.1300
      8 C8         -8.1492   -0.1636   51.6588 C.ar    1  ZINC000986832075   -0.1100
      9 C9         -7.0742    0.6957   51.5446 C.ar    1  ZINC000986832075    0.0900
     10 N10        -7.0414    1.8336   52.2096 N.ar    1  ZINC000986832075   -0.4400
     11 C11        -8.0210    2.2062   53.0080 C.ar    1  ZINC000986832075    0.0700
     12 C12        -9.1410    1.4094   53.1778 C.ar    1  ZINC000986832075    0.1100
     13 F13       -10.1417    1.7978   53.9981 F       1  ZINC000986832075   -0.1000
     14 C14       -12.7360   -1.5959   55.0297 C.3     1  ZINC000986832075   -0.1000
     15 C15       -11.7635   -2.7349   55.3442 C.3     1  ZINC000986832075   -0.1300
     16 C16       -11.9348   -3.1581   56.8065 C.3     1  ZINC000986832075    0.1100
     17 N17       -11.7757   -1.9749   57.6629 N.am    1  ZINC000986832075   -0.6100
     18 C18       -10.8910   -1.9771   58.6796 C.2     1  ZINC000986832075    0.5200
     19 O19       -10.2169   -2.9621   58.8948 O.2     1  ZINC000986832075   -0.5300
     20 C20       -10.7394   -0.7557   59.5492 C.3     1  ZINC000986832075   -0.0800
     21 H21       -11.7223   -0.3315   59.7544 H       1  ZINC000986832075    0.0900
     22 C22        -9.8772    0.2812   58.8263 C.3     1  ZINC000986832075   -0.1400
     23 C23       -10.0679   -1.1478   60.8669 C.3     1  ZINC000986832075   -0.1400
     24 C24        -8.6167   -0.7113   61.0775 C.3     1  ZINC000986832075   -0.1800
     25 C25        -9.7422   -0.0259   61.8549 C.3     1  ZINC000986832075   -0.1700
     26 C26       -12.5992   -0.7892   57.3897 C.3     1  ZINC000986832075    0.1000
     27 C27       -12.4203   -0.3925   55.9209 C.3     1  ZINC000986832075   -0.1300
     28 H28       -13.7517   -0.1716   52.0601 H       1  ZINC000986832075    0.0600
     29 H29       -14.7178   -1.1134   53.2212 H       1  ZINC000986832075    0.0700
     30 H30       -13.9930    0.4352   53.7161 H       1  ZINC000986832075    0.0600
     31 H31       -11.4148    0.5493   53.8509 H       1  ZINC000986832075    0.4000
     32 H32        -8.1676   -1.0940   51.1108 H       1  ZINC000986832075    0.1500
     33 H33        -6.2480    0.4314   50.9013 H       1  ZINC000986832075    0.1700
     34 H34        -7.9515    3.1472   53.5336 H       1  ZINC000986832075    0.1800
     35 H35       -13.7571   -1.9284   55.2167 H       1  ZINC000986832075    0.0800
     36 H36       -11.9738   -3.5832   54.6929 H       1  ZINC000986832075    0.0700
     37 H37       -10.7406   -2.3953   55.1812 H       1  ZINC000986832075    0.0800
     38 H38       -12.9286   -3.5821   56.9501 H       1  ZINC000986832075    0.0700
     39 H39       -11.1783   -3.8995   57.0634 H       1  ZINC000986832075    0.0900
     40 H40        -8.9268   -0.1709   58.5425 H       1  ZINC000986832075    0.0600
     41 H41       -10.3967    0.6261   57.9323 H       1  ZINC000986832075    0.0600
     42 H42        -9.6938    1.1269   59.4891 H       1  ZINC000986832075    0.0700
     43 H43       -10.3693   -2.1105   61.2798 H       1  ZINC000986832075    0.1100
     44 H44        -7.9629   -1.3870   61.6290 H       1  ZINC000986832075    0.1000
     45 H45        -8.1402   -0.1449   60.2773 H       1  ZINC000986832075    0.0900
     46 H46       -10.0062    0.9914   61.5662 H       1  ZINC000986832075    0.0900
     47 H47        -9.8288   -0.2507   62.9180 H       1  ZINC000986832075    0.1000
     48 H48       -13.6471   -1.0201   57.5808 H       1  ZINC000986832075    0.0700
     49 H49       -12.2809    0.0325   58.0314 H       1  ZINC000986832075    0.0900
     50 H50       -11.3913   -0.0751   55.7524 H       1  ZINC000986832075    0.0800
     51 H51       -13.0983    0.4263   55.6800 H       1  ZINC000986832075    0.0800
@<TRIPOS>BOND
     1     1     2    1
     2     1    28    1
     3     1    29    1
     4     1    30    1
     5     2     3    1
     6     2     4    1
     7     2    14    1
     8     4     5   am
     9     4    31    1
    10     5     6    2
    11     5     7    1
    12     7    12   ar
    13     7     8   ar
    14     8     9   ar
    15     8    32    1
    16     9    10   ar
    17     9    33    1
    18    10    11   ar
    19    11    12   ar
    20    11    34    1
    21    12    13    1
    22    14    27    1
    23    14    15    1
    24    14    35    1
    25    15    16    1
    26    15    36    1
    27    15    37    1
    28    16    17    1
    29    16    38    1
    30    16    39    1
    31    17    18   am
    32    17    26    1
    33    18    19    2
    34    18    20    1
    35    20    21    1
    36    20    22    1
    37    20    23    1
    38    22    40    1
    39    22    41    1
    40    22    42    1
    41    23    25    1
    42    23    24    1
    43    23    43    1
    44    24    25    1
    45    24    44    1
    46    24    45    1
    47    25    46    1
    48    25    47    1
    49    26    27    1
    50    26    48    1
    51    26    49    1
    52    27    50    1
    53    27    51    1
@<TRIPOS>SUBSTRUCTURE
     1 ZINC000986832075        1 TEMP              0 ****  ****    0 ROOT


##########                                Name:    ZINC000277085192
##########                DOCK_Rotatable_Bonds:                   4
##########                         Heavy_Atoms:                  23
##########                    Molecular_Weight:             335.747
##########                DOCK_Rotatable_Bonds:                   4
##########                       Formal_Charge:         5.96046e-08
##########                     HBond_Acceptors:                   8
##########                        HBond_Donors:                   2
##########                         Heavy_Atoms:                  23
##########                          Grid_Score:          -29.041702
##########                     Grid_vdw_energy:          -27.606741
##########                      Grid_es_energy:           -1.434960
##########           Internal_energy_repulsive:            5.126200

@<TRIPOS>MOLECULE
ZINC000277085192
 37 39 1 0 0
SMALL
USER_CHARGES


@<TRIPOS>ATOM
      1 O1         -2.8480    2.1969   50.1557 O.2     1  ZINC000277085192   -0.5000
      2 C2         -2.8453    2.3540   51.3585 C.2     1  ZINC000277085192    0.5000
      3 C3         -4.1449    2.3525   52.1214 C.3     1  ZINC000277085192    0.1100
      4 N4         -5.1540    3.1017   51.3686 N.am    1  ZINC000277085192   -0.6000
      5 C5         -5.8993    2.4350   50.2993 C.3     1  ZINC000277085192    0.1100
      6 C6         -7.3380    2.9561   50.2769 C.3     1  ZINC000277085192   -0.1600
      7 C7         -7.3211    4.4617   50.3601 C.2     1  ZINC000277085192    0.5200
      8 O8         -8.1610    5.1110   49.7746 O.2     1  ZINC000277085192   -0.5000
      9 N9         -6.3736    5.0842   51.0851 N.am    1  ZINC000277085192   -0.6700
     10 C10        -5.3862    4.3890   51.6728 C.2     1  ZINC000277085192    0.7200
     11 O11        -4.6798    4.9406   52.4937 O.2     1  ZINC000277085192   -0.5500
     12 N12        -1.6797    2.5242   52.0133 N.am    1  ZINC000277085192   -0.6700
     13 C13        -0.4722    2.5256   51.3045 C.ar    1  ZINC000277085192    0.1400
     14 C14         0.2293    1.3468   51.1319 C.ar    1  ZINC000277085192   -0.0400
     15 C15         1.4401    1.3477   50.4221 C.ar    1  ZINC000277085192   -0.1700
     16 C16         1.9248    2.5452   49.8950 C.ar    1  ZINC000277085192   -0.0500
     17 C17         1.2143    3.7173   50.0737 C.ar    1  ZINC000277085192   -0.0900
     18 C18         0.0190    3.7126   50.7691 C.ar    1  ZINC000277085192   -0.0300
     19 Cl19       -0.8633    5.1917   50.9862 Cl      1  ZINC000277085192   -0.0500
     20 C20         3.2308    2.2917   49.1804 C.3     1  ZINC000277085192   -0.0800
     21 C21         3.5134    0.7895   49.3191 C.3     1  ZINC000277085192   -0.1700
     22 C22         2.3539    0.2364   50.1114 C.2     1  ZINC000277085192    0.4100
     23 O23         2.2014   -0.9222   50.4353 O.2     1  ZINC000277085192   -0.4300
     24 H24        -4.4835    1.3258   52.2605 H       1  ZINC000277085192    0.1300
     25 H25        -3.9956    2.8208   53.0943 H       1  ZINC000277085192    0.1200
     26 H26        -5.4230    2.6421   49.3410 H       1  ZINC000277085192    0.0800
     27 H27        -5.9051    1.3595   50.4767 H       1  ZINC000277085192    0.1000
     28 H28        -7.8226    2.6480   49.3504 H       1  ZINC000277085192    0.1300
     29 H29        -7.8855    2.5504   51.1276 H       1  ZINC000277085192    0.1200
     30 H30        -6.4066    6.0482   51.1873 H       1  ZINC000277085192    0.4300
     31 H31        -1.6774    2.6459   52.9756 H       1  ZINC000277085192    0.4200
     32 H32        -0.1543    0.4251   51.5438 H       1  ZINC000277085192    0.1500
     33 H33         1.5932    4.6421   49.6644 H       1  ZINC000277085192    0.1500
     34 H34         3.1397    2.5599   48.1278 H       1  ZINC000277085192    0.1000
     35 H35         4.0303    2.8677   49.6462 H       1  ZINC000277085192    0.1000
     36 H36         3.5566    0.3211   48.3358 H       1  ZINC000277085192    0.1100
     37 H37         4.4484    0.6292   49.8561 H       1  ZINC000277085192    0.1100
@<TRIPOS>BOND
     1     1     2    2
     2     2     3    1
     3     2    12   am
     4     3     4    1
     5     3    24    1
     6     3    25    1
     7     4    10   am
     8     4     5    1
     9     5     6    1
    10     5    26    1
    11     5    27    1
    12     6     7    1
    13     6    28    1
    14     6    29    1
    15     7     8    2
    16     7     9   am
    17     9    10   am
    18     9    30    1
    19    10    11    2
    20    12    13    1
    21    12    31    1
    22    13    18   ar
    23    13    14   ar
    24    14    15   ar
    25    14    32    1
    26    15    22    1
    27    15    16   ar
    28    16    17   ar
    29    16    20    1
    30    17    18   ar
    31    17    33    1
    32    18    19    1
    33    20    21    1
    34    20    34    1
    35    20    35    1
    36    21    22    1
    37    21    36    1
    38    21    37    1
    39    22    23    2
@<TRIPOS>SUBSTRUCTURE
     1 ZINC000277085192        1 TEMP              0 ****  ****    0 ROOT


##########                                Name:    ZINC000676204775
##########                DOCK_Rotatable_Bonds:                   4
##########                         Heavy_Atoms:                  25
##########                    Molecular_Weight:             359.452
##########                DOCK_Rotatable_Bonds:                   4
##########                       Formal_Charge:          0.00999978
##########                     HBond_Acceptors:                   8
##########                        HBond_Donors:                   2
##########                         Heavy_Atoms:                  25
##########                          Grid_Score:          -29.018732
##########                     Grid_vdw_energy:          -28.409430
##########                      Grid_es_energy:           -0.609303
##########           Internal_energy_repulsive:            5.814329

@<TRIPOS>MOLECULE
ZINC000676204775
 46 49 1 0 0
SMALL
USER_CHARGES


@<TRIPOS>ATOM
      1 C1        -14.0784   -1.8697   54.8775 C.3     1  ZINC000676204775   -0.1600
      2 C2        -14.3760   -2.1699   56.3480 C.3     1  ZINC000676204775    0.1600
      3 C3        -15.4586   -3.2472   56.4395 C.3     1  ZINC000676204775   -0.1600
      4 N4        -13.1566   -2.6457   57.0058 N.pl3   1  ZINC000676204775   -0.3900
      5 N5        -12.7513   -3.9815   57.0954 N.2     1  ZINC000676204775   -0.2500
      6 C6        -11.6238   -4.0646   57.7421 C.2     1  ZINC000676204775    0.0900
      7 C7        -11.2266   -2.7125   58.1210 C.ar    1  ZINC000676204775   -0.2100
      8 C8        -10.1354   -2.1778   58.8145 C.ar    1  ZINC000676204775    0.0800
      9 C9        -10.0547   -0.8292   59.0093 C.ar    1  ZINC000676204775   -0.7200
     10 S10        -8.6809   -0.1543   59.8821 S.o2    1  ZINC000676204775    2.6900
     11 O11        -8.1473   -1.2103   60.6691 O.2     1  ZINC000676204775   -0.9300
     12 O12        -7.9145    0.5675   58.9277 O.2     1  ZINC000676204775   -0.9600
     13 N13        -9.2782    0.9658   60.9457 N.am    1  ZINC000676204775   -1.1100
     14 C14       -10.2335    0.5582   61.9789 C.3     1  ZINC000676204775    0.2400
     15 H15       -10.7094   -0.3791   61.6905 H       1  ZINC000676204775    0.1000
     16 C16       -11.2995    1.6466   62.1561 C.3     1  ZINC000676204775   -0.1200
     17 C17       -12.1518    1.3394   63.3894 C.3     1  ZINC000676204775   -0.1200
     18 C18       -11.3295    1.5840   64.6609 C.3     1  ZINC000676204775   -0.0400
     19 C19       -10.0162    0.8546   64.5199 C.2     1  ZINC000676204775   -0.2300
     20 C20        -9.1303    0.5374   65.4821 C.2     1  ZINC000676204775    0.0600
     21 N21        -8.1032   -0.1155   64.8934 N.pl3   1  ZINC000676204775   -0.4800
     22 N22        -8.3732   -0.1987   63.5190 N.2     1  ZINC000676204775   -0.2400
     23 C23        -9.5156    0.3811   63.2949 C.2     1  ZINC000676204775    0.0500
     24 C24       -11.0452    0.0164   58.5258 C.ar    1  ZINC000676204775    0.0100
     25 C25       -12.1203   -0.4820   57.8456 C.ar    1  ZINC000676204775   -0.1500
     26 C26       -12.2270   -1.8530   57.6267 C.ar    1  ZINC000676204775    0.1700
     27 H27       -13.3073   -1.1021   54.8123 H       1  ZINC000676204775    0.0600
     28 H28       -13.7303   -2.7774   54.3847 H       1  ZINC000676204775    0.0700
     29 H29       -14.9858   -1.5156   54.3881 H       1  ZINC000676204775    0.0800
     30 H30       -14.7242   -1.2621   56.8409 H       1  ZINC000676204775    0.1000
     31 H31       -15.1104   -4.1550   55.9467 H       1  ZINC000676204775    0.0700
     32 H32       -15.6706   -3.4611   57.4871 H       1  ZINC000676204775    0.0600
     33 H33       -16.3659   -2.8932   55.9502 H       1  ZINC000676204775    0.0800
     34 H34       -11.0801   -4.9721   57.9592 H       1  ZINC000676204775    0.2000
     35 H35        -9.3615   -2.8285   59.1939 H       1  ZINC000676204775    0.1500
     36 H36        -8.9955    1.8917   60.8846 H       1  ZINC000676204775    0.4200
     37 H37       -10.8127    2.6134   62.2835 H       1  ZINC000676204775    0.0800
     38 H38       -11.9375    1.6765   61.2728 H       1  ZINC000676204775    0.0800
     39 H39       -13.0286    1.9870   63.3946 H       1  ZINC000676204775    0.0700
     40 H40       -12.4715    0.2978   63.3590 H       1  ZINC000676204775    0.0700
     41 H41       -11.1462    2.6516   64.7806 H       1  ZINC000676204775    0.0700
     42 H42       -11.8702    1.2035   65.5274 H       1  ZINC000676204775    0.0700
     43 H43        -9.2232    0.7634   66.5340 H       1  ZINC000676204775    0.1800
     44 H44        -7.3176   -0.4649   65.3424 H       1  ZINC000676204775    0.4400
     45 H45       -10.9646    1.0809   58.6899 H       1  ZINC000676204775    0.1500
     46 H46       -12.8834    0.1864   57.4749 H       1  ZINC000676204775    0.1300
@<TRIPOS>BOND
     1     1     2    1
     2     1    27    1
     3     1    28    1
     4     1    29    1
     5     2     3    1
     6     2     4    1
     7     2    30    1
     8     3    31    1
     9     3    32    1
    10     3    33    1
    11     4    26    1
    12     4     5    1
    13     5     6    2
    14     6     7    1
    15     6    34    1
    16     7    26   ar
    17     7     8   ar
    18     8     9   ar
    19     8    35    1
    20     9    10    1
    21     9    24   ar
    22    10    11    2
    23    10    12    2
    24    10    13   am
    25    13    14    1
    26    13    36    1
    27    14    15    1
    28    14    23    1
    29    14    16    1
    30    16    17    1
    31    16    37    1
    32    16    38    1
    33    17    18    1
    34    17    39    1
    35    17    40    1
    36    18    19    1
    37    18    41    1
    38    18    42    1
    39    19    23    1
    40    19    20    2
    41    20    21    1
    42    20    43    1
    43    21    22    1
    44    21    44    1
    45    22    23    2
    46    24    25   ar
    47    24    45    1
    48    25    26   ar
    49    25    46    1
@<TRIPOS>SUBSTRUCTURE
     1 ZINC000676204775        1 TEMP              0 ****  ****    0 ROOT


##########                                Name:    ZINC000822206030
##########                DOCK_Rotatable_Bonds:                   7
##########                         Heavy_Atoms:                  29
##########                    Molecular_Weight:             391.448
##########                DOCK_Rotatable_Bonds:                   7
##########                       Formal_Charge:         -0.00999995
##########                     HBond_Acceptors:                   7
##########                        HBond_Donors:                   1
##########                         Heavy_Atoms:                  29
##########                          Grid_Score:          -29.015532
##########                     Grid_vdw_energy:          -28.502121
##########                      Grid_es_energy:           -0.513410
##########           Internal_energy_repulsive:           22.952974

@<TRIPOS>MOLECULE
ZINC000822206030
 51 55 1 0 0
SMALL
USER_CHARGES


@<TRIPOS>ATOM
      1 C1        -10.0209    3.4424   52.4644 C.3     1  ZINC000822206030   -0.1300
      2 C2         -8.7479    2.9398   51.8334 C.ar    1  ZINC000822206030   -0.0400
      3 C3         -8.4593    1.5894   51.8413 C.ar    1  ZINC000822206030   -0.1500
      4 C4         -7.2893    1.1271   51.2621 C.ar    1  ZINC000822206030    0.1100
      5 F5         -7.0084   -0.1943   51.2711 F       1  ZINC000822206030   -0.1400
      6 C6         -6.4073    2.0173   50.6733 C.ar    1  ZINC000822206030   -0.1500
      7 C7         -6.6924    3.3688   50.6634 C.ar    1  ZINC000822206030   -0.0800
      8 C8         -7.8671    3.8337   51.2388 C.ar    1  ZINC000822206030    0.1100
      9 N9         -8.1583    5.2034   51.2295 N.am    1  ZINC000822206030   -0.5600
     10 C10        -7.7886    6.0387   52.3748 C.3     1  ZINC000822206030    0.1500
     11 C11        -6.8381    5.2795   53.2642 C.ar    1  ZINC000822206030   -0.0900
     12 C12        -5.4822    5.2892   52.9910 C.ar    1  ZINC000822206030   -0.1000
     13 C13        -4.6072    4.5959   53.8026 C.ar    1  ZINC000822206030   -0.0800
     14 C14        -5.0917    3.8854   54.8985 C.ar    1  ZINC000822206030   -0.0100
     15 C15        -4.1553    3.1382   55.7752 C.2     1  ZINC000822206030    0.2200
     16 N16        -2.8417    3.1008   55.6734 N.2     1  ZINC000822206030   -0.2900
     17 N17        -2.3943    2.3455   56.6169 N.pl3   1  ZINC000822206030   -0.2300
     18 N18        -3.3827    1.9032   57.3130 N.2     1  ZINC000822206030   -0.0500
     19 N19        -4.4808    2.3747   56.8279 N.2     1  ZINC000822206030   -0.2700
     20 C20        -6.4582    3.8789   55.1690 C.ar    1  ZINC000822206030   -0.0800
     21 C21        -7.3239    4.5799   54.3540 C.ar    1  ZINC000822206030   -0.0900
     22 C22        -8.7787    5.7532   50.1667 C.2     1  ZINC000822206030    0.5500
     23 O23        -9.0323    6.9392   50.1593 O.2     1  ZINC000822206030   -0.5000
     24 C24        -9.1574    4.8943   48.9878 C.3     1  ZINC000822206030   -0.1900
     25 H25        -8.5676    3.9868   48.8587 H       1  ZINC000822206030    0.1200
     26 C26        -9.6462    5.6049   47.7241 C.3     1  ZINC000822206030   -0.1400
     27 C27       -10.6368    4.8363   48.6022 C.3     1  ZINC000822206030   -0.0900
     28 H28       -11.0205    3.8906   48.2191 H       1  ZINC000822206030    0.1100
     29 C29       -11.6191    5.6549   49.4424 C.3     1  ZINC000822206030   -0.1100
     30 C30       -13.0953    5.6144   49.0426 C.3     1  ZINC000822206030   -0.2000
     31 C31       -12.6238    4.8865   50.3031 C.3     1  ZINC000822206030   -0.1200
     32 H32       -10.8172    3.4494   51.7201 H       1  ZINC000822206030    0.0900
     33 H33       -10.3008    2.7874   53.2895 H       1  ZINC000822206030    0.0700
     34 H34        -9.8656    4.4538   52.8399 H       1  ZINC000822206030    0.0700
     35 H35        -9.1461    0.8934   52.2997 H       1  ZINC000822206030    0.1400
     36 H36        -5.4956    1.6547   50.2218 H       1  ZINC000822206030    0.1400
     37 H37        -6.0040    4.0629   50.2044 H       1  ZINC000822206030    0.1400
     38 H38        -7.3053    6.9489   52.0196 H       1  ZINC000822206030    0.1000
     39 H39        -8.6843    6.2992   52.9386 H       1  ZINC000822206030    0.0900
     40 H40        -5.1075    5.8400   52.1409 H       1  ZINC000822206030    0.1300
     41 H41        -3.5487    4.6038   53.5882 H       1  ZINC000822206030    0.1400
     42 H42        -1.4595    2.1419   56.7771 H       1  ZINC000822206030    0.4800
     43 H43        -6.8392    3.3294   56.0172 H       1  ZINC000822206030    0.1300
     44 H44        -8.3836    4.5757   54.5629 H       1  ZINC000822206030    0.1400
     45 H45        -9.6940    6.6936   47.7455 H       1  ZINC000822206030    0.1000
     46 H46        -9.3785    5.1646   46.7636 H       1  ZINC000822206030    0.1000
     47 H47       -11.2303    6.5928   49.8391 H       1  ZINC000822206030    0.1000
     48 H48       -13.6781    6.5258   49.1761 H       1  ZINC000822206030    0.0900
     49 H49       -13.3669    5.0045   48.1811 H       1  ZINC000822206030    0.0900
     50 H50       -12.5852    3.7976   50.2706 H       1  ZINC000822206030    0.0800
     51 H51       -12.8965    5.3190   51.2657 H       1  ZINC000822206030    0.0900
@<TRIPOS>BOND
     1     1     2    1
     2     1    32    1
     3     1    33    1
     4     1    34    1
     5     2     8   ar
     6     2     3   ar
     7     3     4   ar
     8     3    35    1
     9     4     5    1
    10     4     6   ar
    11     6     7   ar
    12     6    36    1
    13     7     8   ar
    14     7    37    1
    15     8     9    1
    16     9    10    1
    17     9    22   am
    18    10    11    1
    19    10    38    1
    20    10    39    1
    21    11    21   ar
    22    11    12   ar
    23    12    13   ar
    24    12    40    1
    25    13    14   ar
    26    13    41    1
    27    14    15    1
    28    14    20   ar
    29    15    19    1
    30    15    16    2
    31    16    17    1
    32    17    18    1
    33    17    42    1
    34    18    19    2
    35    20    21   ar
    36    20    43    1
    37    21    44    1
    38    22    23    2
    39    22    24    1
    40    24    25    1
    41    24    27    1
    42    24    26    1
    43    26    27    1
    44    26    45    1
    45    26    46    1
    46    27    28    1
    47    27    29    1
    48    29    31    1
    49    29    30    1
    50    29    47    1
    51    30    31    1
    52    30    48    1
    53    30    49    1
    54    31    50    1
    55    31    51    1
@<TRIPOS>SUBSTRUCTURE
     1 ZINC000822206030        1 TEMP              0 ****  ****    0 ROOT


##########                                Name:    ZINC000033150761
##########                DOCK_Rotatable_Bonds:                   7
##########                         Heavy_Atoms:                  29
##########                    Molecular_Weight:             413.407
##########                DOCK_Rotatable_Bonds:                   7
##########                       Formal_Charge:          0.00999993
##########                     HBond_Acceptors:                  10
##########                        HBond_Donors:                   1
##########                         Heavy_Atoms:                  29
##########                          Grid_Score:          -29.003529
##########                     Grid_vdw_energy:          -29.217745
##########                      Grid_es_energy:            0.214217
##########           Internal_energy_repulsive:            5.611347

@<TRIPOS>MOLECULE
ZINC000033150761
 42 45 1 0 0
SMALL
USER_CHARGES


@<TRIPOS>ATOM
      1 O1         -4.4457    2.4651   49.3045 O.2     1  ZINC000033150761   -0.5000
      2 C2         -3.9653    2.8124   50.3625 C.2     1  ZINC000033150761    0.5200
      3 C3         -2.4690    2.8301   50.5410 C.3     1  ZINC000033150761   -0.1300
      4 C4         -2.0220    4.2317   50.9613 C.3     1  ZINC000033150761   -0.0100
      5 C5         -1.4602    4.1818   52.3588 C.2     1  ZINC000033150761    0.1800
      6 N6         -2.0311    3.6451   53.4081 N.2     1  ZINC000033150761   -0.4400
      7 C7         -1.1666    3.8367   54.4298 C.2     1  ZINC000033150761    0.2200
      8 C8         -1.3567    3.4057   55.8379 C.ar    1  ZINC000033150761    0.1900
      9 C9         -2.4606    2.6293   56.1791 C.ar    1  ZINC000033150761   -0.1300
     10 C10        -2.6248    2.2346   57.4966 C.ar    1  ZINC000033150761   -0.0700
     11 C11        -1.6776    2.6309   58.4289 C.ar    1  ZINC000033150761   -0.1500
     12 C12        -0.6046    3.4027   58.0197 C.ar    1  ZINC000033150761    0.1100
     13 N13        -0.4702    3.7592   56.7591 N.ar    1  ZINC000033150761   -0.4500
     14 N14        -0.1317    4.4721   53.9459 N.2     1  ZINC000033150761   -0.3600
     15 O15        -0.2827    4.6718   52.7591 O.3     1  ZINC000033150761    0.0900
     16 N16        -4.7694    3.1879   51.3769 N.am    1  ZINC000033150761   -0.6200
     17 C17        -6.1490    3.1716   51.2124 C.2     1  ZINC000033150761    0.2700
     18 N18        -6.9444    2.2438   51.6457 N.2     1  ZINC000033150761   -0.5000
     19 C19        -8.2376    2.3946   51.3960 C.2     1  ZINC000033150761    0.1200
     20 C20        -9.2509    1.4055   51.8377 C.ar    1  ZINC000033150761    0.0000
     21 C21        -8.9420    0.0467   51.8500 C.ar    1  ZINC000033150761   -0.0800
     22 C22        -9.8872   -0.8710   52.2620 C.ar    1  ZINC000033150761   -0.1200
     23 C23       -11.1417   -0.4442   52.6632 C.ar    1  ZINC000033150761    0.0700
     24 F24       -12.0634   -1.3461   53.0656 F       1  ZINC000033150761   -0.1300
     25 C25       -11.4548    0.9079   52.6534 C.ar    1  ZINC000033150761    0.0700
     26 F26       -12.6800    1.3197   53.0462 F       1  ZINC000033150761   -0.1300
     27 C27       -10.5129    1.8333   52.2471 C.ar    1  ZINC000033150761   -0.1000
     28 C28        -8.5674    3.5064   50.7148 C.2     1  ZINC000033150761   -0.2800
     29 S29        -7.0907    4.4114   50.3893 S.3     1  ZINC000033150761    0.2200
     30 H30        -2.1864    2.1124   51.3112 H       1  ZINC000033150761    0.1200
     31 H31        -1.9877    2.5621   49.6004 H       1  ZINC000033150761    0.1200
     32 H32        -1.2556    4.5900   50.2741 H       1  ZINC000033150761    0.1300
     33 H33        -2.8765    4.9080   50.9372 H       1  ZINC000033150761    0.1200
     34 H34        -3.1792    2.3389   55.4269 H       1  ZINC000033150761    0.1400
     35 H35        -3.4713    1.6323   57.7912 H       1  ZINC000033150761    0.1500
     36 H36        -1.7767    2.3402   59.4643 H       1  ZINC000033150761    0.1400
     37 H37         0.1349    3.7132   58.7428 H       1  ZINC000033150761    0.1700
     38 H38        -4.3849    3.4695   52.2218 H       1  ZINC000033150761    0.4300
     39 H39        -7.9642   -0.2880   51.5370 H       1  ZINC000033150761    0.1400
     40 H40        -9.6478   -1.9241   52.2711 H       1  ZINC000033150761    0.1500
     41 H41       -10.7564    2.8855   52.2395 H       1  ZINC000033150761    0.1600
     42 H42        -9.5655    3.7968   50.4219 H       1  ZINC000033150761    0.1800
@<TRIPOS>BOND
     1     1     2    2
     2     2     3    1
     3     2    16   am
     4     3     4    1
     5     3    30    1
     6     3    31    1
     7     4     5    1
     8     4    32    1
     9     4    33    1
    10     5    15    1
    11     5     6    2
    12     6     7    1
    13     7     8    1
    14     7    14    2
    15     8    13   ar
    16     8     9   ar
    17     9    10   ar
    18     9    34    1
    19    10    11   ar
    20    10    35    1
    21    11    12   ar
    22    11    36    1
    23    12    13   ar
    24    12    37    1
    25    14    15    1
    26    16    17    1
    27    16    38    1
    28    17    29    1
    29    17    18    2
    30    18    19    1
    31    19    20    1
    32    19    28    2
    33    20    27   ar
    34    20    21   ar
    35    21    22   ar
    36    21    39    1
    37    22    23   ar
    38    22    40    1
    39    23    24    1
    40    23    25   ar
    41    25    26    1
    42    25    27   ar
    43    27    41    1
    44    28    29    1
    45    28    42    1
@<TRIPOS>SUBSTRUCTURE
     1 ZINC000033150761        1 TEMP              0 ****  ****    0 ROOT


##########                                Name:    ZINC000541568816
##########                DOCK_Rotatable_Bonds:                   8
##########                         Heavy_Atoms:                  25
##########                    Molecular_Weight:             411.339
##########                DOCK_Rotatable_Bonds:                   8
##########                       Formal_Charge:          -0.0100007
##########                     HBond_Acceptors:                   5
##########                        HBond_Donors:                   1
##########                         Heavy_Atoms:                  25
##########                          Grid_Score:          -28.962505
##########                     Grid_vdw_energy:          -28.351492
##########                      Grid_es_energy:           -0.611013
##########           Internal_energy_repulsive:           19.532993

@<TRIPOS>MOLECULE
ZINC000541568816
 52 54 1 0 0
SMALL
USER_CHARGES


@<TRIPOS>ATOM
      1 C1         -8.6068    0.1288   64.5726 C.3     1  ZINC000541568816   -0.1500
      2 C2         -8.1497    0.0054   63.1177 C.3     1  ZINC000541568816    0.0600
      3 O3         -9.2741   -0.2971   62.2893 O.3     1  ZINC000541568816   -0.3700
      4 C4         -9.1893    0.2503   60.9720 C.3     1  ZINC000541568816    0.0700
      5 H5         -8.1854    0.1899   60.5519 H       1  ZINC000541568816    0.0900
      6 C6         -9.8307    1.6430   60.8399 C.3     1  ZINC000541568816   -0.1700
      7 C7        -10.3833    1.1761   59.4817 C.3     1  ZINC000541568816    0.1500
      8 H8        -11.4059    1.5013   59.2907 H       1  ZINC000541568816    0.1100
      9 N9         -9.4818    1.4421   58.3579 N.am    1  ZINC000541568816   -0.7200
     10 C10        -9.9865    1.7770   57.1539 C.2     1  ZINC000541568816    0.7100
     11 O11       -11.1898    1.8597   57.0008 O.2     1  ZINC000541568816   -0.5800
     12 N12        -9.1572    2.0202   56.1196 N.am    1  ZINC000541568816   -0.6300
     13 C13        -7.7073    1.9223   56.3046 C.3     1  ZINC000541568816    0.1000
     14 C14        -7.1192    3.3243   56.4763 C.3     1  ZINC000541568816   -0.1800
     15 C15        -9.7059    2.3825   54.8104 C.3     1  ZINC000541568816    0.1700
     16 C16        -9.0935    1.5054   53.7490 C.ar    1  ZINC000541568816   -0.0700
     17 C17        -7.9554    1.9187   53.0829 C.ar    1  ZINC000541568816   -0.1000
     18 C18        -7.3934    1.1141   52.1090 C.ar    1  ZINC000541568816   -0.1000
     19 C19        -7.9693   -0.1043   51.8016 C.ar    1  ZINC000541568816   -0.1200
     20 C20        -9.1077   -0.5186   52.4674 C.ar    1  ZINC000541568816   -0.0900
     21 C21        -9.6672    0.2837   53.4453 C.ar    1  ZINC000541568816   -0.0900
     22 Br22      -11.2245   -0.2825   54.3564 Br      1  ZINC000541568816   -0.0500
     23 C23       -10.2828   -0.2547   60.0253 C.3     1  ZINC000541568816    0.0800
     24 C24       -11.5533   -0.7633   60.7285 C.3     1  ZINC000541568816   -0.1200
     25 C25       -12.0823   -1.8199   59.7187 C.3     1  ZINC000541568816   -0.1600
     26 C26       -10.7527   -2.3738   59.1459 C.3     1  ZINC000541568816    0.0500
     27 O27        -9.8699   -1.2401   59.0806 O.3     1  ZINC000541568816   -0.3600
     28 H28        -9.3442    0.9272   64.6553 H       1  ZINC000541568816    0.0600
     29 H29        -9.0526   -0.8123   64.8945 H       1  ZINC000541568816    0.0600
     30 H30        -7.7491    0.3595   65.2046 H       1  ZINC000541568816    0.0700
     31 H31        -7.7039    0.9465   62.7958 H       1  ZINC000541568816    0.0500
     32 H32        -7.4122   -0.7930   63.0350 H       1  ZINC000541568816    0.0500
     33 H33       -10.6049    1.8390   61.5819 H       1  ZINC000541568816    0.1000
     34 H34        -9.1047    2.4521   60.7609 H       1  ZINC000541568816    0.0800
     35 H35        -8.5218    1.3773   58.4804 H       1  ZINC000541568816    0.4000
     36 H36        -7.4936    1.3275   57.1926 H       1  ZINC000541568816    0.0900
     37 H37        -7.2611    1.4456   55.4318 H       1  ZINC000541568816    0.0700
     38 H38        -7.5654    3.8011   57.3490 H       1  ZINC000541568816    0.0600
     39 H39        -6.0404    3.2515   56.6139 H       1  ZINC000541568816    0.0700
     40 H40        -7.3330    3.9193   55.5883 H       1  ZINC000541568816    0.0600
     41 H41       -10.7869    2.2426   54.8182 H       1  ZINC000541568816    0.1000
     42 H42        -9.4761    3.4262   54.5964 H       1  ZINC000541568816    0.1100
     43 H43        -7.5051    2.8706   53.3228 H       1  ZINC000541568816    0.1300
     44 H44        -6.5044    1.4377   51.5881 H       1  ZINC000541568816    0.1300
     45 H45        -7.5300   -0.7325   51.0408 H       1  ZINC000541568816    0.1300
     46 H46        -9.5579   -1.4704   52.2269 H       1  ZINC000541568816    0.1300
     47 H47       -11.3098   -1.2266   61.6846 H       1  ZINC000541568816    0.1000
     48 H48       -12.2742    0.0434   60.8609 H       1  ZINC000541568816    0.0900
     49 H49       -12.6464   -2.6015   60.2276 H       1  ZINC000541568816    0.0900
     50 H50       -12.6811   -1.3512   58.9378 H       1  ZINC000541568816    0.0800
     51 H51       -10.3427   -3.1346   59.8101 H       1  ZINC000541568816    0.0600
     52 H52       -10.9127   -2.7865   58.1499 H       1  ZINC000541568816    0.0900
@<TRIPOS>BOND
     1     1     2    1
     2     1    28    1
     3     1    29    1
     4     1    30    1
     5     2     3    1
     6     2    31    1
     7     2    32    1
     8     3     4    1
     9     4     5    1
    10     4    23    1
    11     4     6    1
    12     6     7    1
    13     6    33    1
    14     6    34    1
    15     7     8    1
    16     7     9    1
    17     7    23    1
    18     9    10   am
    19     9    35    1
    20    10    11    2
    21    10    12   am
    22    12    13    1
    23    12    15    1
    24    13    14    1
    25    13    36    1
    26    13    37    1
    27    14    38    1
    28    14    39    1
    29    14    40    1
    30    15    16    1
    31    15    41    1
    32    15    42    1
    33    16    21   ar
    34    16    17   ar
    35    17    18   ar
    36    17    43    1
    37    18    19   ar
    38    18    44    1
    39    19    20   ar
    40    19    45    1
    41    20    21   ar
    42    20    46    1
    43    21    22    1
    44    23    27    1
    45    23    24    1
    46    24    25    1
    47    24    47    1
    48    24    48    1
    49    25    26    1
    50    25    49    1
    51    25    50    1
    52    26    27    1
    53    26    51    1
    54    26    52    1
@<TRIPOS>SUBSTRUCTURE
     1 ZINC000541568816        1 TEMP              0 ****  ****    0 ROOT


##########                                Name:    ZINC000919225759
##########                DOCK_Rotatable_Bonds:                   4
##########                         Heavy_Atoms:                  27
##########                    Molecular_Weight:             375.295
##########                DOCK_Rotatable_Bonds:                   4
##########                       Formal_Charge:                0.04
##########                     HBond_Acceptors:                  11
##########                        HBond_Donors:                   0
##########                         Heavy_Atoms:                  27
##########                          Grid_Score:          -28.956829
##########                     Grid_vdw_energy:          -29.442604
##########                      Grid_es_energy:            0.485774
##########           Internal_energy_repulsive:           12.788938

@<TRIPOS>MOLECULE
ZINC000919225759
 40 41 1 0 0
SMALL
USER_CHARGES


@<TRIPOS>ATOM
      1 C1         -8.9781    4.3905   58.3722 C.3     1  ZINC000919225759   -0.1500
      2 C2         -8.9479    3.0371   59.0345 C.ar    1  ZINC000919225759    0.0900
      3 C3         -8.3791    1.9470   58.3731 C.ar    1  ZINC000919225759   -0.1200
      4 C4         -7.8050    2.1159   57.0224 C.2     1  ZINC000919225759    0.5200
      5 O5         -8.4179    1.7263   56.0488 O.2     1  ZINC000919225759   -0.4700
      6 O6         -6.6016    2.7021   56.8706 O.3     1  ZINC000919225759   -0.3400
      7 C7         -6.1937    3.0288   55.5159 C.3     1  ZINC000919225759    0.1400
      8 H8         -6.4435    2.2013   54.8517 H       1  ZINC000919225759    0.1100
      9 C9         -6.9238    4.2915   55.0540 C.3     1  ZINC000919225759   -0.1700
     10 C10        -4.7062    3.2680   55.4829 C.ar    1  ZINC000919225759   -0.1000
     11 C11        -4.1481    4.0095   54.4587 C.ar    1  ZINC000919225759   -0.0400
     12 C12        -2.7834    4.2290   54.4284 C.ar    1  ZINC000919225759   -0.1100
     13 C13        -1.9773    3.7072   55.4225 C.ar    1  ZINC000919225759   -0.0500
     14 C14        -2.5358    2.9663   56.4476 C.ar    1  ZINC000919225759   -0.0400
     15 N15        -1.6724    2.4071   57.5118 N.pl3   1  ZINC000919225759    0.0300
     16 O16        -0.4701    2.5998   57.4847 O.2     1  ZINC000919225759   -0.1500
     17 O17        -2.1643    1.7542   58.4148 O.2     1  ZINC000919225759   -0.1500
     18 C18        -3.9006    2.7505   56.4801 C.ar    1  ZINC000919225759   -0.0400
     19 C19        -8.3548    0.6966   58.9943 C.ar    1  ZINC000919225759    0.0500
     20 C20        -8.8922    0.5462   60.2555 C.ar    1  ZINC000919225759   -0.0600
     21 N21        -8.8669   -0.7784   60.9158 N.pl3   1  ZINC000919225759    0.0300
     22 O22        -8.3721   -1.7339   60.3452 O.2     1  ZINC000919225759   -0.1300
     23 O23        -9.3411   -0.9128   62.0296 O.2     1  ZINC000919225759   -0.1300
     24 C24        -9.4545    1.6308   60.9054 C.ar    1  ZINC000919225759    0.0400
     25 C25        -9.4771    2.8736   60.2980 C.ar    1  ZINC000919225759   -0.0500
     26 N26       -10.0802    4.0282   61.0010 N.pl3   1  ZINC000919225759    0.0200
     27 O27       -11.0795    3.8737   61.6799 O.2     1  ZINC000919225759   -0.1300
     28 O28        -9.5770    5.1329   60.9005 O.2     1  ZINC000919225759   -0.1200
     29 H29        -8.0238    4.8931   58.5292 H       1  ZINC000919225759    0.1200
     30 H30        -9.1527    4.2680   57.3032 H       1  ZINC000919225759    0.1200
     31 H31        -9.7797    4.9889   58.8051 H       1  ZINC000919225759    0.0900
     32 H32        -6.6740    5.1190   55.7181 H       1  ZINC000919225759    0.0700
     33 H33        -6.6176    4.5368   54.0370 H       1  ZINC000919225759    0.0900
     34 H34        -7.9996    4.1186   55.0778 H       1  ZINC000919225759    0.0700
     35 H35        -4.7780    4.4172   53.6820 H       1  ZINC000919225759    0.1500
     36 H36        -2.3473    4.8079   53.6278 H       1  ZINC000919225759    0.1500
     37 H37        -0.9112    3.8781   55.3985 H       1  ZINC000919225759    0.1600
     38 H38        -4.3368    2.1716   57.2808 H       1  ZINC000919225759    0.1600
     39 H39        -7.9166   -0.1509   58.4881 H       1  ZINC000919225759    0.1900
     40 H40        -9.8742    1.5075   61.8929 H       1  ZINC000919225759    0.1900
@<TRIPOS>BOND
     1     1     2    1
     2     1    29    1
     3     1    30    1
     4     1    31    1
     5     2    25   ar
     6     2     3   ar
     7     3     4    1
     8     3    19   ar
     9     4     5    2
    10     4     6    1
    11     6     7    1
    12     7     8    1
    13     7     9    1
    14     7    10    1
    15     9    32    1
    16     9    33    1
    17     9    34    1
    18    10    18   ar
    19    10    11   ar
    20    11    12   ar
    21    11    35    1
    22    12    13   ar
    23    12    36    1
    24    13    14   ar
    25    13    37    1
    26    14    15    1
    27    14    18   ar
    28    15    16    2
    29    15    17    2
    30    18    38    1
    31    19    20   ar
    32    19    39    1
    33    20    21    1
    34    20    24   ar
    35    21    22    2
    36    21    23    2
    37    24    25   ar
    38    24    40    1
    39    25    26    1
    40    26    27    2
    41    26    28    2
@<TRIPOS>SUBSTRUCTURE
     1 ZINC000919225759        1 TEMP              0 ****  ****    0 ROOT


##########                                Name:    ZINC000956479608
##########                DOCK_Rotatable_Bonds:                   5
##########                         Heavy_Atoms:                  25
##########                    Molecular_Weight:             345.442
##########                DOCK_Rotatable_Bonds:                   5
##########                       Formal_Charge:          -0.0100001
##########                     HBond_Acceptors:                   6
##########                        HBond_Donors:                   1
##########                         Heavy_Atoms:                  25
##########                          Grid_Score:          -28.951345
##########                     Grid_vdw_energy:          -28.979401
##########                      Grid_es_energy:            0.028055
##########           Internal_energy_repulsive:           28.955847

@<TRIPOS>MOLECULE
ZINC000956479608
 52 55 1 0 0
SMALL
USER_CHARGES


@<TRIPOS>ATOM
      1 C1        -11.6334   -0.5425   57.9249 C.3     1  ZINC000956479608   -0.0900
      2 C2        -11.3705   -1.9377   57.4193 C.2     1  ZINC000956479608   -0.1100
      3 C3        -11.3801   -2.3819   56.1252 C.2     1  ZINC000956479608   -0.1000
      4 C4        -11.6535   -1.5832   54.9156 C.2     1  ZINC000956479608    0.6100
      5 O5        -12.4760   -1.9671   54.1066 O.2     1  ZINC000956479608   -0.5000
      6 N6        -10.9916   -0.4278   54.7071 N.am    1  ZINC000956479608   -0.7100
      7 C7        -11.2619    0.3646   53.5050 C.3     1  ZINC000956479608    0.1800
      8 C8        -12.7370    0.7703   53.4828 C.3     1  ZINC000956479608   -0.1700
      9 C9        -10.3881    1.6210   53.5153 C.3     1  ZINC000956479608   -0.1500
     10 C10        -8.9130    1.2117   53.5722 C.3     1  ZINC000956479608    0.1100
     11 N11        -8.6342    0.2919   52.4609 N.am    1  ZINC000956479608   -0.6100
     12 C12        -7.6260    0.5391   51.6013 C.2     1  ZINC000956479608    0.5500
     13 O13        -7.4070   -0.2272   50.6871 O.2     1  ZINC000956479608   -0.5400
     14 C14        -6.7710    1.7676   51.7760 C.3     1  ZINC000956479608   -0.1900
     15 H15        -6.2129    1.8235   52.7106 H       1  ZINC000956479608    0.1200
     16 C16        -6.1196    2.3550   50.5308 C.3     1  ZINC000956479608   -0.1100
     17 H17        -6.3363    1.8431   49.5933 H       1  ZINC000956479608    0.1000
     18 C18        -4.7249    2.9550   50.6179 C.3     1  ZINC000956479608   -0.0900
     19 C19        -4.6358    3.9360   51.7869 C.3     1  ZINC000956479608   -0.1200
     20 C20        -5.7436    4.9841   51.6309 C.3     1  ZINC000956479608   -0.1200
     21 C21        -7.0802    4.3382   51.9963 C.3     1  ZINC000956479608   -0.0900
     22 C22        -7.2892    3.0848   51.1782 C.3     1  ZINC000956479608   -0.1100
     23 H23        -8.2339    3.0320   50.6371 H       1  ZINC000956479608    0.1100
     24 C24        -9.4751   -0.9028   52.3049 C.3     1  ZINC000956479608    0.1000
     25 C25       -10.9439   -0.4698   52.2621 C.3     1  ZINC000956479608   -0.1400
     26 O26       -11.0890   -3.6954   56.1790 O.3     1  ZINC000956479608    0.1200
     27 N27       -10.9149   -4.0638   57.3171 N.2     1  ZINC000956479608   -0.3400
     28 C28       -11.0507   -3.0906   58.1703 C.2     1  ZINC000956479608   -0.0100
     29 H29       -10.6967    0.0139   57.9594 H       1  ZINC000956479608    0.0800
     30 H30       -12.3307   -0.0388   57.2555 H       1  ZINC000956479608    0.0900
     31 H31       -12.0628   -0.5936   58.9254 H       1  ZINC000956479608    0.0800
     32 H32       -10.3363   -0.1209   55.3531 H       1  ZINC000956479608    0.4100
     33 H33       -12.9639    1.3642   54.3683 H       1  ZINC000956479608    0.0800
     34 H34       -12.9383    1.3598   52.5885 H       1  ZINC000956479608    0.0700
     35 H35       -13.3598   -0.1243   53.4761 H       1  ZINC000956479608    0.0600
     36 H36       -10.5707    2.1986   52.6091 H       1  ZINC000956479608    0.0800
     37 H37       -10.6316    2.2264   54.3884 H       1  ZINC000956479608    0.1000
     38 H38        -8.2842    2.0972   53.4801 H       1  ZINC000956479608    0.0900
     39 H39        -8.7085    0.7128   54.5195 H       1  ZINC000956479608    0.0600
     40 H40        -3.9980    2.1558   50.7629 H       1  ZINC000956479608    0.0700
     41 H41        -4.5007    3.4803   49.6895 H       1  ZINC000956479608    0.0700
     42 H42        -4.7694    3.3993   52.7261 H       1  ZINC000956479608    0.0600
     43 H43        -3.6630    4.4277   51.7787 H       1  ZINC000956479608    0.0700
     44 H44        -5.5489    5.8244   52.2973 H       1  ZINC000956479608    0.0700
     45 H45        -5.7754    5.3322   50.5984 H       1  ZINC000956479608    0.0700
     46 H46        -7.0787    4.0789   53.0550 H       1  ZINC000956479608    0.0700
     47 H47        -7.8878    5.0436   51.8004 H       1  ZINC000956479608    0.0700
     48 H48        -9.2172   -1.4124   51.3764 H       1  ZINC000956479608    0.0900
     49 H49        -9.3164   -1.5741   53.1488 H       1  ZINC000956479608    0.0700
     50 H50       -11.5830   -1.3525   52.2432 H       1  ZINC000956479608    0.0900
     51 H51       -11.1212    0.1275   51.3677 H       1  ZINC000956479608    0.0900
     52 H52       -10.9471   -3.1538   59.2434 H       1  ZINC000956479608    0.2000
@<TRIPOS>BOND
     1     1     2    1
     2     1    29    1
     3     1    30    1
     4     1    31    1
     5     2    28    1
     6     2     3    2
     7     3     4    1
     8     3    26    1
     9     4     5    2
    10     4     6   am
    11     6     7    1
    12     6    32    1
    13     7    25    1
    14     7     8    1
    15     7     9    1
    16     8    33    1
    17     8    34    1
    18     8    35    1
    19     9    10    1
    20     9    36    1
    21     9    37    1
    22    10    11    1
    23    10    38    1
    24    10    39    1
    25    11    12   am
    26    11    24    1
    27    12    13    2
    28    12    14    1
    29    14    15    1
    30    14    22    1
    31    14    16    1
    32    16    17    1
    33    16    22    1
    34    16    18    1
    35    18    19    1
    36    18    40    1
    37    18    41    1
    38    19    20    1
    39    19    42    1
    40    19    43    1
    41    20    21    1
    42    20    44    1
    43    20    45    1
    44    21    22    1
    45    21    46    1
    46    21    47    1
    47    22    23    1
    48    24    25    1
    49    24    48    1
    50    24    49    1
    51    25    50    1
    52    25    51    1
    53    26    27    1
    54    27    28    2
    55    28    52    1
@<TRIPOS>SUBSTRUCTURE
     1 ZINC000956479608        1 TEMP              0 ****  ****    0 ROOT


##########                                Name:    ZINC000848949366
##########                DOCK_Rotatable_Bonds:                   8
##########                         Heavy_Atoms:                  25
##########                    Molecular_Weight:             368.773
##########                DOCK_Rotatable_Bonds:                   8
##########                       Formal_Charge:          0.00999947
##########                     HBond_Acceptors:                   9
##########                        HBond_Donors:                   3
##########                         Heavy_Atoms:                  25
##########                          Grid_Score:          -28.940126
##########                     Grid_vdw_energy:          -28.170935
##########                      Grid_es_energy:           -0.769192
##########           Internal_energy_repulsive:           17.738062

@<TRIPOS>MOLECULE
ZINC000848949366
 42 43 1 0 0
SMALL
USER_CHARGES


@<TRIPOS>ATOM
      1 C1        -11.9971    3.7191   60.3932 C.3     1  ZINC000848949366   -0.1500
      2 C2        -11.6307    2.3504   59.8156 C.3     1  ZINC000848949366    0.0600
      3 O3        -11.1729    1.4971   60.8664 O.3     1  ZINC000848949366   -0.3500
      4 C4         -9.8927    1.6495   61.2655 C.2     1  ZINC000848949366    0.5400
      5 O5         -9.1233    2.3168   60.5997 O.2     1  ZINC000848949366   -0.4800
      6 C6         -9.4454    1.0335   62.4577 C.2     1  ZINC000848949366   -0.2300
      7 C7         -8.9491   -0.2224   62.4509 C.2     1  ZINC000848949366    0.2000
      8 C8         -8.8699   -0.9812   61.1512 C.3     1  ZINC000848949366    0.1000
      9 O9        -10.1856   -1.4897   60.8066 O.3     1  ZINC000848949366   -0.3500
     10 C10       -10.3091   -2.1107   59.6171 C.2     1  ZINC000848949366    0.5100
     11 O11        -9.3184   -2.3854   58.9692 O.2     1  ZINC000848949366   -0.4800
     12 C12       -11.6455   -2.4566   59.1020 C.ar    1  ZINC000848949366   -0.1600
     13 C13       -11.7758   -3.1505   57.8957 C.ar    1  ZINC000848949366   -0.0300
     14 C14       -13.0278   -3.4711   57.4193 C.ar    1  ZINC000848949366   -0.1300
     15 C15       -14.1612   -3.1081   58.1312 C.ar    1  ZINC000848949366    0.0200
     16 Cl16      -15.7330   -3.5181   57.5189 Cl      1  ZINC000848949366   -0.0500
     17 C17       -14.0464   -2.4220   59.3259 C.ar    1  ZINC000848949366   -0.1500
     18 C18       -12.7940   -2.0966   59.8225 C.ar    1  ZINC000848949366    0.1900
     19 O19       -12.6797   -1.4234   60.9945 O.3     1  ZINC000848949366   -0.4700
     20 N20        -8.5171   -0.8158   63.6025 N.am    1  ZINC000848949366   -0.6400
     21 C21        -8.5485   -0.2206   64.8015 C.2     1  ZINC000848949366    0.7100
     22 O22        -8.1413   -0.8300   65.7712 O.2     1  ZINC000848949366   -0.5600
     23 N23        -9.0165    1.0323   64.9681 N.am    1  ZINC000848949366   -0.7100
     24 C24        -9.5012    1.7625   63.7848 C.3     1  ZINC000848949366    0.2000
     25 H25        -8.9212    2.6812   63.6961 H       1  ZINC000848949366    0.0900
     26 C26       -10.9591    2.1527   64.0358 C.3     1  ZINC000848949366   -0.1700
     27 H27       -12.3464    4.3700   59.5917 H       1  ZINC000848949366    0.0800
     28 H28       -12.7867    3.6007   61.1353 H       1  ZINC000848949366    0.0700
     29 H29       -11.1192    4.1615   60.8641 H       1  ZINC000848949366    0.0700
     30 H30       -12.5086    1.9080   59.3448 H       1  ZINC000848949366    0.0700
     31 H31       -10.8411    2.4688   59.0736 H       1  ZINC000848949366    0.0700
     32 H32        -8.5198   -0.3153   60.3625 H       1  ZINC000848949366    0.1100
     33 H33        -8.1751   -1.8141   61.2585 H       1  ZINC000848949366    0.1000
     34 H34       -10.8958   -3.4346   57.3377 H       1  ZINC000848949366    0.1500
     35 H35       -13.1272   -4.0072   56.4871 H       1  ZINC000848949366    0.1500
     36 H36       -14.9336   -2.1426   59.8748 H       1  ZINC000848949366    0.1500
     37 H37       -13.5251   -1.1424   61.3707 H       1  ZINC000848949366    0.4000
     38 H38        -8.1682   -1.7193   63.5489 H       1  ZINC000848949366    0.4300
     39 H39        -9.0304    1.4443   65.8462 H       1  ZINC000848949366    0.4400
     40 H40       -11.0185    2.7867   64.9204 H       1  ZINC000848949366    0.0700
     41 H41       -11.3436    2.6961   63.1727 H       1  ZINC000848949366    0.0700
     42 H42       -11.5541    1.2529   64.1931 H       1  ZINC000848949366    0.0700
@<TRIPOS>BOND
     1     1     2    1
     2     1    27    1
     3     1    28    1
     4     1    29    1
     5     2     3    1
     6     2    30    1
     7     2    31    1
     8     3     4    1
     9     4     5    2
    10     4     6    1
    11     6    24    1
    12     6     7    2
    13     7     8    1
    14     7    20    1
    15     8     9    1
    16     8    32    1
    17     8    33    1
    18     9    10    1
    19    10    11    2
    20    10    12    1
    21    12    18   ar
    22    12    13   ar
    23    13    14   ar
    24    13    34    1
    25    14    15   ar
    26    14    35    1
    27    15    16    1
    28    15    17   ar
    29    17    18   ar
    30    17    36    1
    31    18    19    1
    32    19    37    1
    33    20    21   am
    34    20    38    1
    35    21    22    2
    36    21    23   am
    37    23    24    1
    38    23    39    1
    39    24    25    1
    40    24    26    1
    41    26    40    1
    42    26    41    1
    43    26    42    1
@<TRIPOS>SUBSTRUCTURE
     1 ZINC000848949366        1 TEMP              0 ****  ****    0 ROOT


##########                                Name:    ZINC001326371752
##########                DOCK_Rotatable_Bonds:                   5
##########                         Heavy_Atoms:                  25
##########                    Molecular_Weight:             360.397
##########                DOCK_Rotatable_Bonds:                   5
##########                       Formal_Charge:           0.0199999
##########                     HBond_Acceptors:                  10
##########                        HBond_Donors:                   0
##########                         Heavy_Atoms:                  25
##########                          Grid_Score:          -28.909456
##########                     Grid_vdw_energy:          -27.412111
##########                      Grid_es_energy:           -1.497345
##########           Internal_energy_repulsive:           11.635286

@<TRIPOS>MOLECULE
ZINC001326371752
 41 44 1 0 0
SMALL
USER_CHARGES


@<TRIPOS>ATOM
      1 C1          0.0366    2.6703   57.8126 C.3     1  ZINC001326371752    0.0300
      2 O2          0.9158    3.4390   56.9890 O.3     1  ZINC001326371752   -0.3800
      3 C3          0.5776    3.4188   55.6007 C.3     1  ZINC001326371752    0.0500
      4 C4         -0.8833    3.8380   55.4255 C.3     1  ZINC001326371752    0.1200
      5 N5         -1.1300    4.1732   54.0209 N.pl3   1  ZINC001326371752   -0.2800
      6 N6         -0.2732    4.6832   53.2010 N.2     1  ZINC001326371752   -0.0800
      7 N7         -0.8126    4.8569   52.0417 N.2     1  ZINC001326371752   -0.2500
      8 C8         -2.0747    4.4469   52.0964 C.2     1  ZINC001326371752   -0.0400
      9 C9         -2.2874    3.9983   53.3582 C.2     1  ZINC001326371752    0.0000
     10 C10        -3.5886    3.4307   53.8577 C.3     1  ZINC001326371752   -0.0600
     11 C11        -4.7100    3.8480   52.8970 C.3     1  ZINC001326371752    0.1200
     12 N12        -4.2607    3.6462   51.5116 N.am    1  ZINC001326371752   -0.6100
     13 C13        -4.8705    2.7486   50.7124 C.2     1  ZINC001326371752    0.6100
     14 O14        -4.4867    2.5933   49.5680 O.2     1  ZINC001326371752   -0.5100
     15 C15        -5.9972    1.9585   51.2220 C.2     1  ZINC001326371752   -0.3400
     16 C16        -5.8044    0.6441   51.6628 C.2     1  ZINC001326371752    0.2400
     17 N17        -6.8403   -0.0368   52.1148 N.2     1  ZINC001326371752   -0.5100
     18 C18        -8.0575    0.4883   52.1630 C.2     1  ZINC001326371752    0.2900
     19 S19        -9.5481   -0.1857   52.7020 S.3     1  ZINC001326371752    0.2500
     20 C20       -10.5011    1.2669   52.3602 C.2     1  ZINC001326371752   -0.2100
     21 C21        -9.6414    2.1446   51.8713 C.2     1  ZINC001326371752    0.0500
     22 N22        -8.3288    1.7556   51.7547 N.am    1  ZINC001326371752   -0.4600
     23 C23        -7.2948    2.5121   51.2820 C.2     1  ZINC001326371752    0.5500
     24 O24        -7.4915    3.6560   50.9102 O.2     1  ZINC001326371752   -0.5000
     25 C25        -3.1257    4.4453   51.0155 C.3     1  ZINC001326371752    0.2000
     26 H26         0.3608    2.7369   58.8511 H       1  ZINC001326371752    0.0900
     27 H27        -0.9778    3.0591   57.7230 H       1  ZINC001326371752    0.0500
     28 H28         0.0561    1.6289   57.4919 H       1  ZINC001326371752    0.0500
     29 H29         1.2219    4.1120   55.0597 H       1  ZINC001326371752    0.0600
     30 H30         0.7163    2.4117   55.2075 H       1  ZINC001326371752    0.0600
     31 H31        -1.5351    3.0167   55.7229 H       1  ZINC001326371752    0.1200
     32 H32        -1.0887    4.7087   56.0483 H       1  ZINC001326371752    0.1200
     33 H33        -3.5234    2.3433   53.8931 H       1  ZINC001326371752    0.0900
     34 H34        -3.7980    3.8190   54.8545 H       1  ZINC001326371752    0.1000
     35 H35        -5.5952    3.2402   53.0848 H       1  ZINC001326371752    0.1100
     36 H36        -4.9500    4.8998   53.0524 H       1  ZINC001326371752    0.0800
     37 H37        -4.8230    0.1942   51.6333 H       1  ZINC001326371752    0.1900
     38 H38       -11.5604    1.4064   52.5173 H       1  ZINC001326371752    0.2200
     39 H39        -9.9599    3.1327   51.5739 H       1  ZINC001326371752    0.2000
     40 H40        -3.4494    5.4672   50.8181 H       1  ZINC001326371752    0.1000
     41 H41        -2.7272    3.9985   50.1047 H       1  ZINC001326371752    0.1000
@<TRIPOS>BOND
     1     1     2    1
     2     1    26    1
     3     1    27    1
     4     1    28    1
     5     2     3    1
     6     3     4    1
     7     3    29    1
     8     3    30    1
     9     4     5    1
    10     4    31    1
    11     4    32    1
    12     5     9    1
    13     5     6    1
    14     6     7    2
    15     7     8    1
    16     8    25    1
    17     8     9    2
    18     9    10    1
    19    10    11    1
    20    10    33    1
    21    10    34    1
    22    11    12    1
    23    11    35    1
    24    11    36    1
    25    12    13   am
    26    12    25    1
    27    13    14    2
    28    13    15    1
    29    15    23    1
    30    15    16    2
    31    16    17    1
    32    16    37    1
    33    17    18    2
    34    18    22    1
    35    18    19    1
    36    19    20    1
    37    20    21    2
    38    20    38    1
    39    21    22    1
    40    21    39    1
    41    22    23   am
    42    23    24    2
    43    25    40    1
    44    25    41    1
@<TRIPOS>SUBSTRUCTURE
     1 ZINC001326371752        1 TEMP              0 ****  ****    0 ROOT


##########                                Name:    ZINC000191003171
##########                DOCK_Rotatable_Bonds:                   6
##########                         Heavy_Atoms:                  26
##########                    Molecular_Weight:             389.414
##########                DOCK_Rotatable_Bonds:                   6
##########                       Formal_Charge:          -0.0200002
##########                     HBond_Acceptors:                   8
##########                        HBond_Donors:                   1
##########                         Heavy_Atoms:                  26
##########                          Grid_Score:          -28.908901
##########                     Grid_vdw_energy:          -28.296421
##########                      Grid_es_energy:           -0.612480
##########           Internal_energy_repulsive:           16.371527

@<TRIPOS>MOLECULE
ZINC000191003171
 45 46 1 0 0
SMALL
USER_CHARGES


@<TRIPOS>ATOM
      1 C1         -1.1562    3.9723   53.0334 C.3     1  ZINC000191003171   -0.1200
      2 C2         -1.9954    3.6673   54.2475 C.ar    1  ZINC000191003171   -0.0800
      3 C3         -1.4550    3.8011   55.5124 C.ar    1  ZINC000191003171   -0.0700
      4 C4         -2.2249    3.5212   56.6262 C.ar    1  ZINC000191003171   -0.1800
      5 C5         -1.6355    3.6667   58.0055 C.3     1  ZINC000191003171    0.5100
      6 F6         -1.8236    4.9773   58.4572 F       1  ZINC000191003171   -0.1800
      7 F7         -2.2689    2.7767   58.8795 F       1  ZINC000191003171   -0.1800
      8 F8         -0.2666    3.3810   57.9602 F       1  ZINC000191003171   -0.1800
      9 C9         -3.5352    3.1085   56.4747 C.ar    1  ZINC000191003171   -0.0800
     10 C10        -4.0759    2.9750   55.2093 C.ar    1  ZINC000191003171   -0.1000
     11 C11        -3.3076    3.2590   54.0959 C.ar    1  ZINC000191003171   -0.0500
     12 C12        -3.8970    3.1135   52.7166 C.3     1  ZINC000191003171    0.0900
     13 N13        -5.2922    2.6669   52.8249 N.3     1  ZINC000191003171   -0.6800
     14 C14        -5.7349    2.0171   51.5840 C.3     1  ZINC000191003171    0.1200
     15 H15        -5.0226    1.2400   51.3067 H       1  ZINC000191003171    0.0600
     16 C16        -5.8163    3.0571   50.4647 C.3     1  ZINC000191003171   -0.1400
     17 C17        -7.0933    1.4006   51.7967 C.ar    1  ZINC000191003171   -0.0100
     18 C18        -7.2688    0.0400   51.6277 C.ar    1  ZINC000191003171   -0.1300
     19 C19        -8.5146   -0.5270   51.8225 C.ar    1  ZINC000191003171    0.0100
     20 C20        -9.5860    0.2661   52.1863 C.ar    1  ZINC000191003171   -0.7000
     21 S21       -11.1736   -0.4569   52.4345 S.o2    1  ZINC000191003171    2.5000
     22 C22       -11.4267   -0.3883   54.2295 C.3     1  ZINC000191003171   -0.6500
     23 O23       -12.0681    0.4253   51.7707 O.2     1  ZINC000191003171   -0.9300
     24 O24       -11.0173   -1.8021   52.0041 O.2     1  ZINC000191003171   -0.9300
     25 C25        -9.4114    1.6292   52.3565 C.ar    1  ZINC000191003171    0.1900
     26 F26       -10.4582    2.4057   52.7122 F       1  ZINC000191003171   -0.1200
     27 C27        -8.1624    2.1951   52.1662 C.ar    1  ZINC000191003171   -0.1700
     28 H28        -1.2626    5.0255   52.7735 H       1  ZINC000191003171    0.0800
     29 H29        -0.1103    3.7556   53.2508 H       1  ZINC000191003171    0.0800
     30 H30        -1.4888    3.3565   52.1978 H       1  ZINC000191003171    0.0600
     31 H31        -0.4312    4.1240   55.6309 H       1  ZINC000191003171    0.1400
     32 H32        -4.1365    2.8898   57.3446 H       1  ZINC000191003171    0.1400
     33 H33        -5.0997    2.6522   55.0908 H       1  ZINC000191003171    0.1400
     34 H34        -3.8618    4.0743   52.2033 H       1  ZINC000191003171    0.0900
     35 H35        -3.3231    2.3787   52.1519 H       1  ZINC000191003171    0.0500
     36 H36        -5.4155    2.0547   53.6175 H       1  ZINC000191003171    0.3500
     37 H37        -6.1447    2.5750   49.5439 H       1  ZINC000191003171    0.0600
     38 H38        -6.5286    3.8342   50.7420 H       1  ZINC000191003171    0.0700
     39 H39        -4.8336    3.5030   50.3109 H       1  ZINC000191003171    0.0600
     40 H40        -6.4320   -0.5806   51.3429 H       1  ZINC000191003171    0.1500
     41 H41        -8.6506   -1.5902   51.6898 H       1  ZINC000191003171    0.1600
     42 H42       -11.3958    0.6496   54.5613 H       1  ZINC000191003171    0.1300
     43 H43       -12.3966   -0.8198   54.4765 H       1  ZINC000191003171    0.1400
     44 H44       -10.6397   -0.9530   54.7292 H       1  ZINC000191003171    0.1300
     45 H45        -8.0250    3.2580   52.2990 H       1  ZINC000191003171    0.1500
@<TRIPOS>BOND
     1     1     2    1
     2     1    28    1
     3     1    29    1
     4     1    30    1
     5     2    11   ar
     6     2     3   ar
     7     3     4   ar
     8     3    31    1
     9     4     5    1
    10     4     9   ar
    11     5     6    1
    12     5     7    1
    13     5     8    1
    14     9    10   ar
    15     9    32    1
    16    10    11   ar
    17    10    33    1
    18    11    12    1
    19    12    13    1
    20    12    34    1
    21    12    35    1
    22    13    14    1
    23    13    36    1
    24    14    15    1
    25    14    16    1
    26    14    17    1
    27    16    37    1
    28    16    38    1
    29    16    39    1
    30    17    27   ar
    31    17    18   ar
    32    18    19   ar
    33    18    40    1
    34    19    20   ar
    35    19    41    1
    36    20    21    1
    37    20    25   ar
    38    21    22    1
    39    21    23    2
    40    21    24    2
    41    22    42    1
    42    22    43    1
    43    22    44    1
    44    25    26    1
    45    25    27   ar
    46    27    45    1
@<TRIPOS>SUBSTRUCTURE
     1 ZINC000191003171        1 TEMP              0 ****  ****    0 ROOT


##########                                Name:    ZINC000898967786
##########                DOCK_Rotatable_Bonds:                   5
##########                         Heavy_Atoms:                  25
##########                    Molecular_Weight:             356.448
##########                DOCK_Rotatable_Bonds:                   5
##########                       Formal_Charge:        -2.38419e-07
##########                     HBond_Acceptors:                   7
##########                        HBond_Donors:                   1
##########                         Heavy_Atoms:                  25
##########                          Grid_Score:          -28.893700
##########                     Grid_vdw_energy:          -26.614374
##########                      Grid_es_energy:           -2.279326
##########           Internal_energy_repulsive:           14.251130

@<TRIPOS>MOLECULE
ZINC000898967786
 45 48 1 0 0
SMALL
USER_CHARGES


@<TRIPOS>ATOM
      1 C1        -10.2210    2.0343   67.5343 C.3     1  ZINC000898967786   -0.0800
      2 C2        -10.0496    1.5982   66.1019 C.2     1  ZINC000898967786    0.0900
      3 C3         -9.1472    0.6974   65.6550 C.2     1  ZINC000898967786   -0.1000
      4 C4         -8.1378   -0.0473   66.4901 C.3     1  ZINC000898967786    0.2200
      5 N5         -6.8076    0.5283   66.2766 N.am    1  ZINC000898967786   -0.7400
      6 C6         -6.2856    1.3746   67.1865 C.2     1  ZINC000898967786    0.7100
      7 O7         -6.9186    1.6603   68.1844 O.2     1  ZINC000898967786   -0.5800
      8 N8         -5.0618    1.9040   66.9901 N.am    1  ZINC000898967786   -0.6300
      9 C9         -4.4712    2.8301   67.9692 C.3     1  ZINC000898967786    0.0900
     10 C10        -3.9827    4.0765   67.2224 C.3     1  ZINC000898967786    0.0500
     11 O11        -3.1404    3.6761   66.1389 O.3     1  ZINC000898967786   -0.3700
     12 C12        -3.7978    2.8805   65.1497 C.3     1  ZINC000898967786    0.1400
     13 H13        -4.6538    3.4265   64.7532 H       1  ZINC000898967786    0.0700
     14 C14        -2.8360    2.5715   64.0315 C.2     1  ZINC000898967786   -0.1100
     15 C15        -1.9834    1.5468   64.0811 C.2     1  ZINC000898967786   -0.1800
     16 S16        -1.0275    1.5030   62.6053 S.3     1  ZINC000898967786    0.1100
     17 C17        -1.8642    2.9205   61.9856 C.2     1  ZINC000898967786   -0.2100
     18 C18        -2.7743    3.3261   62.8726 C.2     1  ZINC000898967786   -0.1300
     19 C19        -4.2744    1.5684   65.7931 C.3     1  ZINC000898967786    0.0900
     20 N20        -9.3218    0.5875   64.3023 N.pl3   1  ZINC000898967786   -0.3500
     21 C21        -8.6970   -0.1628   63.3487 C.2     1  ZINC000898967786    0.0600
     22 C22        -9.0717   -0.0803   62.0549 C.2     1  ZINC000898967786   -0.1400
     23 C23       -10.1125    0.7819   61.6720 C.2     1  ZINC000898967786   -0.1000
     24 C24       -10.7436    1.5353   62.6123 C.2     1  ZINC000898967786   -0.0800
     25 C25       -10.3410    1.4376   63.9594 C.2     1  ZINC000898967786    0.2400
     26 N26       -10.7679    2.0332   65.0640 N.2     1  ZINC000898967786   -0.4900
     27 H27       -10.9393    1.3809   68.0295 H       1  ZINC000898967786    0.0800
     28 H28        -9.2620    1.9765   68.0489 H       1  ZINC000898967786    0.0700
     29 H29       -10.5860    3.0611   67.5602 H       1  ZINC000898967786    0.0800
     30 H30        -8.4051    0.0363   67.5436 H       1  ZINC000898967786    0.1000
     31 H31        -8.1300   -1.0978   66.1995 H       1  ZINC000898967786    0.0700
     32 H32        -6.3026    0.3003   65.4804 H       1  ZINC000898967786    0.4000
     33 H33        -5.2228    3.1144   68.7056 H       1  ZINC000898967786    0.1100
     34 H34        -3.6306    2.3487   68.4691 H       1  ZINC000898967786    0.0800
     35 H35        -4.8394    4.6269   66.8334 H       1  ZINC000898967786    0.0600
     36 H36        -3.4198    4.7129   67.9052 H       1  ZINC000898967786    0.1100
     37 H37        -1.8935    0.8509   64.9019 H       1  ZINC000898967786    0.1700
     38 H38        -1.6737    3.3882   61.0310 H       1  ZINC000898967786    0.1700
     39 H39        -3.4092    4.1830   62.7029 H       1  ZINC000898967786    0.1400
     40 H40        -3.4126    0.9621   66.0721 H       1  ZINC000898967786    0.0800
     41 H41        -4.8977    1.0187   65.0878 H       1  ZINC000898967786    0.0900
     42 H42        -7.8952   -0.8285   63.6322 H       1  ZINC000898967786    0.1600
     43 H43        -8.5689   -0.6798   61.3103 H       1  ZINC000898967786    0.1500
     44 H44       -10.4099    0.8466   60.6357 H       1  ZINC000898967786    0.1500
     45 H45       -11.5449    2.2020   62.3294 H       1  ZINC000898967786    0.1500
@<TRIPOS>BOND
     1     1     2    1
     2     1    27    1
     3     1    28    1
     4     1    29    1
     5     2    26    1
     6     2     3    2
     7     3     4    1
     8     3    20    1
     9     4     5    1
    10     4    30    1
    11     4    31    1
    12     5     6   am
    13     5    32    1
    14     6     7    2
    15     6     8   am
    16     8    19    1
    17     8     9    1
    18     9    10    1
    19     9    33    1
    20     9    34    1
    21    10    11    1
    22    10    35    1
    23    10    36    1
    24    11    12    1
    25    12    13    1
    26    12    14    1
    27    12    19    1
    28    14    18    1
    29    14    15    2
    30    15    16    1
    31    15    37    1
    32    16    17    1
    33    17    18    2
    34    17    38    1
    35    18    39    1
    36    19    40    1
    37    19    41    1
    38    20    25    1
    39    20    21    1
    40    21    22    2
    41    21    42    1
    42    22    23    1
    43    22    43    1
    44    23    24    2
    45    23    44    1
    46    24    25    1
    47    24    45    1
    48    25    26    2
@<TRIPOS>SUBSTRUCTURE
     1 ZINC000898967786        1 TEMP              0 ****  ****    0 ROOT


##########                                Name:    ZINC001371344729
##########                DOCK_Rotatable_Bonds:                   9
##########                         Heavy_Atoms:                  24
##########                    Molecular_Weight:             332.399
##########                DOCK_Rotatable_Bonds:                   9
##########                       Formal_Charge:          0.00999983
##########                     HBond_Acceptors:                   6
##########                        HBond_Donors:                   1
##########                         Heavy_Atoms:                  24
##########                          Grid_Score:          -28.892267
##########                     Grid_vdw_energy:          -28.388437
##########                      Grid_es_energy:           -0.503831
##########           Internal_energy_repulsive:           24.593708

@<TRIPOS>MOLECULE
ZINC001371344729
 48 49 1 0 0
SMALL
USER_CHARGES


@<TRIPOS>ATOM
      1 C1          3.1679    3.2687   52.9501 C.3     1  ZINC001371344729   -0.1800
      2 C2          3.0178    3.2107   51.4287 C.3     1  ZINC001371344729    0.1000
      3 N3          2.3530    1.9611   51.0508 N.am    1  ZINC001371344729   -0.6100
      4 C4          1.0180    1.8393   51.1901 C.2     1  ZINC001371344729    0.5100
      5 O5          0.4673    0.8054   50.8758 O.2     1  ZINC001371344729   -0.5200
      6 C6          0.2094    2.9878   51.7362 C.3     1  ZINC001371344729   -0.0600
      7 C7         -1.2467    2.7770   51.4099 C.2     1  ZINC001371344729   -0.0100
      8 C8         -2.2878    3.1943   52.1525 C.2     1  ZINC001371344729   -0.1600
      9 C9         -2.2165    3.9531   53.4527 C.3     1  ZINC001371344729   -0.0800
     10 C10        -3.4614    2.7793   51.4824 C.2     1  ZINC001371344729   -0.2100
     11 C11        -3.0675    2.1414   50.3655 C.2     1  ZINC001371344729   -0.0300
     12 O12        -1.7250    2.1398   50.3287 O.3     1  ZINC001371344729   -0.1700
     13 C13         3.1392    0.8440   50.5215 C.3     1  ZINC001371344729    0.1200
     14 H14         2.5077   -0.0411   50.4460 H       1  ZINC001371344729    0.1100
     15 C15         4.3118    0.5554   51.4611 C.3     1  ZINC001371344729   -0.1600
     16 C16         3.6743    1.2086   49.1353 C.3     1  ZINC001371344729    0.1100
     17 N17         2.6801    0.8540   48.1193 N.am    1  ZINC001371344729   -0.7200
     18 C18         2.9217    1.1164   46.8196 C.2     1  ZINC001371344729    0.5900
     19 O19         3.9655    1.6463   46.4901 O.2     1  ZINC001371344729   -0.5300
     20 C20         1.9208    0.7613   45.7978 C.2     1  ZINC001371344729   -0.2300
     21 C21         0.7631    0.0642   45.9846 C.2     1  ZINC001371344729    0.0200
     22 O22         0.1395   -0.0412   44.8071 O.3     1  ZINC001371344729   -0.1700
     23 C23         0.8470    0.5560   43.8354 C.2     1  ZINC001371344729   -0.0100
     24 C24         0.4495    0.6280   42.3836 C.3     1  ZINC001371344729   -0.0800
     25 C25         1.9645    1.0787   44.3629 C.2     1  ZINC001371344729   -0.1600
     26 H26         3.7656    2.4224   53.2888 H       1  ZINC001371344729    0.0700
     27 H27         3.6626    4.1984   53.2313 H       1  ZINC001371344729    0.0700
     28 H28         2.1826    3.2266   53.4144 H       1  ZINC001371344729    0.0600
     29 H29         4.0032    3.2528   50.9645 H       1  ZINC001371344729    0.0900
     30 H30         2.4202    4.0571   51.0901 H       1  ZINC001371344729    0.0800
     31 H31         0.5514    3.9196   51.2858 H       1  ZINC001371344729    0.1100
     32 H32         0.3356    3.0392   52.8176 H       1  ZINC001371344729    0.1200
     33 H33        -2.2125    5.0238   53.2487 H       1  ZINC001371344729    0.0700
     34 H34        -3.0817    3.7035   54.0668 H       1  ZINC001371344729    0.0700
     35 H35        -1.3038    3.6808   53.9827 H       1  ZINC001371344729    0.0600
     36 H36        -4.4790    2.9451   51.8040 H       1  ZINC001371344729    0.1500
     37 H37        -3.7202    1.7004   49.6265 H       1  ZINC001371344729    0.2000
     38 H38         3.9305    0.2957   52.4487 H       1  ZINC001371344729    0.0700
     39 H39         4.8968   -0.2758   51.0673 H       1  ZINC001371344729    0.0700
     40 H40         4.9432    1.4406   51.5366 H       1  ZINC001371344729    0.0700
     41 H41         3.8717    2.2797   49.0921 H       1  ZINC001371344729    0.0800
     42 H42         4.5977    0.6612   48.9468 H       1  ZINC001371344729    0.0800
     43 H43         1.8480    0.4303   48.3821 H       1  ZINC001371344729    0.4000
     44 H44         0.4095   -0.3330   46.9246 H       1  ZINC001371344729    0.2100
     45 H45         0.8507   -0.2359   41.8537 H       1  ZINC001371344729    0.0800
     46 H46        -0.6376    0.6303   42.3041 H       1  ZINC001371344729    0.0800
     47 H47         0.8479    1.5418   41.9427 H       1  ZINC001371344729    0.0900
     48 H48         2.7380    1.6219   43.8403 H       1  ZINC001371344729    0.1600
@<TRIPOS>BOND
     1     1     2    1
     2     1    26    1
     3     1    27    1
     4     1    28    1
     5     2     3    1
     6     2    29    1
     7     2    30    1
     8     3     4   am
     9     3    13    1
    10     4     5    2
    11     4     6    1
    12     6     7    1
    13     6    31    1
    14     6    32    1
    15     7    12    1
    16     7     8    2
    17     8     9    1
    18     8    10    1
    19     9    33    1
    20     9    34    1
    21     9    35    1
    22    10    11    2
    23    10    36    1
    24    11    12    1
    25    11    37    1
    26    13    14    1
    27    13    15    1
    28    13    16    1
    29    15    38    1
    30    15    39    1
    31    15    40    1
    32    16    17    1
    33    16    41    1
    34    16    42    1
    35    17    18   am
    36    17    43    1
    37    18    19    2
    38    18    20    1
    39    20    25    1
    40    20    21    2
    41    21    22    1
    42    21    44    1
    43    22    23    1
    44    23    24    1
    45    23    25    2
    46    24    45    1
    47    24    46    1
    48    24    47    1
    49    25    48    1
@<TRIPOS>SUBSTRUCTURE
     1 ZINC001371344729        1 TEMP              0 ****  ****    0 ROOT


##########                                Name:    ZINC000545381384
##########                DOCK_Rotatable_Bonds:                   6
##########                         Heavy_Atoms:                  30
##########                    Molecular_Weight:             405.543
##########                DOCK_Rotatable_Bonds:                   6
##########                       Formal_Charge:                0.05
##########                     HBond_Acceptors:                   6
##########                        HBond_Donors:                   1
##########                         Heavy_Atoms:                  30
##########                          Grid_Score:          -28.888973
##########                     Grid_vdw_energy:          -27.644274
##########                      Grid_es_energy:           -1.244699
##########           Internal_energy_repulsive:           22.936499

@<TRIPOS>MOLECULE
ZINC000545381384
 61 64 1 0 0
SMALL
USER_CHARGES


@<TRIPOS>ATOM
      1 C1         -8.9249   -1.6813   60.2122 C.3     1  ZINC000545381384   -0.2000
      2 C2         -9.6617   -0.3649   59.9573 C.3     1  ZINC000545381384    0.0500
      3 N3        -11.0828   -0.6397   59.7061 N.3     1  ZINC000545381384   -0.5300
      4 C4        -11.6186   -1.5899   60.6935 C.3     1  ZINC000545381384    0.0500
      5 C5        -13.1451   -1.5508   60.6281 C.3     1  ZINC000545381384   -0.0700
      6 C6        -13.6041   -1.7195   59.1996 C.ar    1  ZINC000545381384    0.1800
      7 C7        -12.7293   -1.5275   58.1367 C.ar    1  ZINC000545381384   -0.0800
      8 C8        -11.2867   -1.1518   58.3473 C.3     1  ZINC000545381384    0.0900
      9 C9        -13.1861   -1.6866   56.8307 C.ar    1  ZINC000545381384   -0.0700
     10 C10       -12.2808   -1.4859   55.6792 C.2     1  ZINC000545381384    0.5800
     11 O11       -11.7664   -2.4442   55.1362 O.2     1  ZINC000545381384   -0.4800
     12 N12       -12.0258   -0.2405   55.2316 N.am    1  ZINC000545381384   -0.6400
     13 C13       -11.1738   -0.0514   54.1454 C.2     1  ZINC000545381384    0.3000
     14 C14        -9.8536    0.2764   54.2048 C.2     1  ZINC000545381384   -0.2700
     15 C15        -9.3754    0.3677   52.8951 C.2     1  ZINC000545381384    0.1000
     16 C16        -7.9631    0.7083   52.4946 C.3     1  ZINC000545381384   -0.0300
     17 C17        -7.7918    2.2286   52.4724 C.3     1  ZINC000545381384   -0.0600
     18 C18        -6.3951    2.5769   51.9542 C.3     1  ZINC000545381384   -0.1500
     19 C19        -8.8461    2.8473   51.5523 C.3     1  ZINC000545381384   -0.1400
     20 C20        -7.9631    2.7818   53.8886 C.3     1  ZINC000545381384   -0.1400
     21 N21       -10.3612    0.1070   52.0753 N.2     1  ZINC000545381384   -0.2700
     22 N22       -11.5069   -0.1660   52.8337 N.pl3   1  ZINC000545381384   -0.3900
     23 C23       -12.8305   -0.5061   52.3058 C.3     1  ZINC000545381384    0.1000
     24 C24       -14.5420   -2.0466   56.6365 C.ar    1  ZINC000545381384   -0.0700
     25 C25       -15.0769   -2.2266   55.3546 C.ar    1  ZINC000545381384   -0.1100
     26 C26       -16.3869   -2.5746   55.2138 C.ar    1  ZINC000545381384   -0.1000
     27 C27       -17.2020   -2.7533   56.3298 C.ar    1  ZINC000545381384   -0.1000
     28 C28       -16.7151   -2.5853   57.5891 C.ar    1  ZINC000545381384   -0.0900
     29 C29       -15.3670   -2.2264   57.7743 C.ar    1  ZINC000545381384    0.1400
     30 N30       -14.8614   -2.0542   58.9951 N.ar    1  ZINC000545381384   -0.4600
     31 H31        -9.3797   -2.1939   61.0600 H       1  ZINC000545381384    0.0600
     32 H32        -8.9928   -2.3131   59.3266 H       1  ZINC000545381384    0.0600
     33 H33        -7.8774   -1.4748   60.4319 H       1  ZINC000545381384    0.0700
     34 H34        -9.5652    0.2805   60.8304 H       1  ZINC000545381384    0.0900
     35 H35        -9.2286    0.1316   59.0889 H       1  ZINC000545381384    0.0800
     36 H36       -11.2680   -2.5956   60.4614 H       1  ZINC000545381384    0.0500
     37 H37       -11.2876   -1.3055   61.6923 H       1  ZINC000545381384    0.0900
     38 H38       -13.5541   -2.3569   61.2373 H       1  ZINC000545381384    0.1000
     39 H39       -13.4994   -0.5939   61.0115 H       1  ZINC000545381384    0.1000
     40 H40       -11.0057   -0.3836   57.6269 H       1  ZINC000545381384    0.0900
     41 H41       -10.6598   -2.0304   58.1953 H       1  ZINC000545381384    0.0700
     42 H42       -12.4353    0.5243   55.6656 H       1  ZINC000545381384    0.4100
     43 H43        -9.2783    0.4376   55.1044 H       1  ZINC000545381384    0.1700
     44 H44        -7.2673    0.2748   53.2128 H       1  ZINC000545381384    0.0800
     45 H45        -7.7595    0.3052   51.5025 H       1  ZINC000545381384    0.0800
     46 H46        -6.2731    2.1828   50.9453 H       1  ZINC000545381384    0.0500
     47 H47        -6.2731    3.6600   51.9384 H       1  ZINC000545381384    0.0500
     48 H48        -5.6439    2.1362   52.6096 H       1  ZINC000545381384    0.0800
     49 H49        -9.8412    2.5991   51.9215 H       1  ZINC000545381384    0.0600
     50 H50        -8.7241    3.9303   51.5365 H       1  ZINC000545381384    0.0600
     51 H51        -8.7242    2.4531   50.5434 H       1  ZINC000545381384    0.0600
     52 H52        -7.2119    2.3410   54.5440 H       1  ZINC000545381384    0.0500
     53 H53        -7.8410    3.8648   53.8728 H       1  ZINC000545381384    0.0500
     54 H54        -8.9581    2.5336   54.2578 H       1  ZINC000545381384    0.0500
     55 H55       -12.9095   -1.5873   52.1919 H       1  ZINC000545381384    0.0800
     56 H56       -13.5979   -0.1565   52.9964 H       1  ZINC000545381384    0.0800
     57 H57       -12.9689   -0.0275   51.3363 H       1  ZINC000545381384    0.1000
     58 H58       -14.4547   -2.0901   54.4824 H       1  ZINC000545381384    0.1300
     59 H59       -16.7985   -2.7133   54.2251 H       1  ZINC000545381384    0.1300
     60 H60       -18.2372   -3.0294   56.1928 H       1  ZINC000545381384    0.1400
     61 H61       -17.3607   -2.7267   58.4432 H       1  ZINC000545381384    0.1400
@<TRIPOS>BOND
     1     1     2    1
     2     1    31    1
     3     1    32    1
     4     1    33    1
     5     2     3    1
     6     2    34    1
     7     2    35    1
     8     3     8    1
     9     3     4    1
    10     4     5    1
    11     4    36    1
    12     4    37    1
    13     5     6    1
    14     5    38    1
    15     5    39    1
    16     6    30   ar
    17     6     7   ar
    18     7     8    1
    19     7     9   ar
    20     8    40    1
    21     8    41    1
    22     9    10    1
    23     9    24   ar
    24    10    11    2
    25    10    12   am
    26    12    13    1
    27    12    42    1
    28    13    22    1
    29    13    14    2
    30    14    15    1
    31    14    43    1
    32    15    16    1
    33    15    21    2
    34    16    17    1
    35    16    44    1
    36    16    45    1
    37    17    18    1
    38    17    19    1
    39    17    20    1
    40    18    46    1
    41    18    47    1
    42    18    48    1
    43    19    49    1
    44    19    50    1
    45    19    51    1
    46    20    52    1
    47    20    53    1
    48    20    54    1
    49    21    22    1
    50    22    23    1
    51    23    55    1
    52    23    56    1
    53    23    57    1
    54    24    29   ar
    55    24    25   ar
    56    25    26   ar
    57    25    58    1
    58    26    27   ar
    59    26    59    1
    60    27    28   ar
    61    27    60    1
    62    28    29   ar
    63    28    61    1
    64    29    30   ar
@<TRIPOS>SUBSTRUCTURE
     1 ZINC000545381384        1 TEMP              0 ****  ****    0 ROOT


##########                                Name:    ZINC000840464592
##########                DOCK_Rotatable_Bonds:                  10
##########                         Heavy_Atoms:                  26
##########                    Molecular_Weight:             360.497
##########                DOCK_Rotatable_Bonds:                  10
##########                       Formal_Charge:          -0.0399996
##########                     HBond_Acceptors:                   5
##########                        HBond_Donors:                   1
##########                         Heavy_Atoms:                  26
##########                          Grid_Score:          -28.870529
##########                     Grid_vdw_energy:          -27.702477
##########                      Grid_es_energy:           -1.168053
##########           Internal_energy_repulsive:           81.853661

@<TRIPOS>MOLECULE
ZINC000840464592
 58 59 1 0 0
SMALL
USER_CHARGES


@<TRIPOS>ATOM
      1 C1         -8.6205    0.1356   52.0222 C.3     1  ZINC000840464592   -0.1500
      2 C2         -9.7214   -0.8518   52.4148 C.3     1  ZINC000840464592   -0.1300
      3 C3        -10.6387   -0.2057   53.4549 C.3     1  ZINC000840464592   -0.1200
      4 C4        -11.7115   -1.2094   53.8825 C.3     1  ZINC000840464592   -0.1200
      5 C5        -12.7905   -0.4884   54.6928 C.3     1  ZINC000840464592   -0.1200
      6 C6        -12.1653    0.1128   55.9532 C.3     1  ZINC000840464592    0.0600
      7 O7        -11.2670   -0.8328   56.5370 O.3     1  ZINC000840464592   -0.3600
      8 C8        -11.7044   -1.3500   57.7952 C.3     1  ZINC000840464592    0.0800
      9 H9        -12.2891   -0.5919   58.3162 H       1  ZINC000840464592    0.0800
     10 C10       -12.5688   -2.5911   57.5639 C.3     1  ZINC000840464592   -0.1800
     11 C11       -10.5057   -1.7211   58.6299 C.2     1  ZINC000840464592    0.5200
     12 O12       -10.1259   -2.8724   58.6674 O.2     1  ZINC000840464592   -0.5000
     13 N13        -9.8558   -0.7739   59.3346 N.am    1  ZINC000840464592   -0.6000
     14 C14        -8.6945   -1.1384   60.1422 C.3     1  ZINC000840464592    0.0900
     15 C15        -8.9409   -0.8799   61.6243 C.3     1  ZINC000840464592   -0.1600
     16 C16        -9.1705    0.6133   61.8686 C.3     1  ZINC000840464592    0.0800
     17 N17       -10.5994    0.9093   61.7187 N.am    1  ZINC000840464592   -0.7200
     18 C18       -11.1736    0.8866   60.5054 C.2     1  ZINC000840464592    0.5100
     19 O19       -12.3651    1.0805   60.3875 O.2     1  ZINC000840464592   -0.5200
     20 C20       -10.3149    0.6181   59.2815 C.3     1  ZINC000840464592    0.1400
     21 H21       -10.9053    0.7757   58.3790 H       1  ZINC000840464592    0.1300
     22 C22        -9.1129    1.5647   59.2803 C.3     1  ZINC000840464592   -0.1000
     23 C23        -9.0018    2.2338   57.9346 C.ar    1  ZINC000840464592   -0.0900
     24 C24        -9.7296    3.3789   57.6699 C.ar    1  ZINC000840464592   -0.1100
     25 C25        -9.6277    3.9928   56.4355 C.ar    1  ZINC000840464592   -0.1200
     26 C26        -8.7978    3.4617   55.4660 C.ar    1  ZINC000840464592   -0.1200
     27 C27        -8.0693    2.3172   55.7310 C.ar    1  ZINC000840464592   -0.1200
     28 C28        -8.1680    1.7058   56.9668 C.ar    1  ZINC000840464592   -0.1100
     29 H29        -8.0387    0.4009   52.9049 H       1  ZINC000840464592    0.0500
     30 H30        -7.9669   -0.3248   51.2812 H       1  ZINC000840464592    0.0500
     31 H31        -9.0716    1.0339   51.6008 H       1  ZINC000840464592    0.0500
     32 H32       -10.3031   -1.1172   51.5320 H       1  ZINC000840464592    0.0600
     33 H33        -9.2703   -1.7502   52.8362 H       1  ZINC000840464592    0.0600
     34 H34       -10.0511    0.0902   54.3239 H       1  ZINC000840464592    0.0600
     35 H35       -11.1158    0.6737   53.0223 H       1  ZINC000840464592    0.0600
     36 H36       -12.1615   -1.6592   52.9974 H       1  ZINC000840464592    0.0600
     37 H37       -11.2569   -1.9883   54.4946 H       1  ZINC000840464592    0.0600
     38 H38       -13.2274    0.3071   54.0891 H       1  ZINC000840464592    0.0700
     39 H39       -13.5675   -1.1983   54.9758 H       1  ZINC000840464592    0.0700
     40 H40       -11.6192    1.0189   55.6912 H       1  ZINC000840464592    0.0500
     41 H41       -12.9514    0.3563   56.6680 H       1  ZINC000840464592    0.0500
     42 H42       -12.8434   -3.0268   58.5245 H       1  ZINC000840464592    0.0800
     43 H43       -13.4712   -2.3093   57.0213 H       1  ZINC000840464592    0.0700
     44 H44       -12.0074   -3.3212   56.9810 H       1  ZINC000840464592    0.0800
     45 H45        -8.4774   -2.1965   59.9965 H       1  ZINC000840464592    0.1000
     46 H46        -7.8357   -0.5516   59.8163 H       1  ZINC000840464592    0.0800
     47 H47        -9.8198   -1.4380   61.9471 H       1  ZINC000840464592    0.0800
     48 H48        -8.0749   -1.2107   62.1976 H       1  ZINC000840464592    0.1000
     49 H49        -8.8487    0.8713   62.8775 H       1  ZINC000840464592    0.0900
     50 H50        -8.6000    1.1933   61.1431 H       1  ZINC000840464592    0.1000
     51 H51       -11.1325    1.1224   62.5006 H       1  ZINC000840464592    0.4000
     52 H52        -9.2460    2.3221   60.0527 H       1  ZINC000840464592    0.0900
     53 H53        -8.2037    0.9977   59.4803 H       1  ZINC000840464592    0.1000
     54 H54       -10.3781    3.7938   58.4274 H       1  ZINC000840464592    0.1200
     55 H55       -10.1969    4.8870   56.2285 H       1  ZINC000840464592    0.1200
     56 H56        -8.7187    3.9409   54.5013 H       1  ZINC000840464592    0.1200
     57 H57        -7.4212    1.9021   54.9733 H       1  ZINC000840464592    0.1200
     58 H58        -7.5988    0.8116   57.1738 H       1  ZINC000840464592    0.1200
@<TRIPOS>BOND
     1     1     2    1
     2     1    29    1
     3     1    30    1
     4     1    31    1
     5     2     3    1
     6     2    32    1
     7     2    33    1
     8     3     4    1
     9     3    34    1
    10     3    35    1
    11     4     5    1
    12     4    36    1
    13     4    37    1
    14     5     6    1
    15     5    38    1
    16     5    39    1
    17     6     7    1
    18     6    40    1
    19     6    41    1
    20     7     8    1
    21     8     9    1
    22     8    10    1
    23     8    11    1
    24    10    42    1
    25    10    43    1
    26    10    44    1
    27    11    12    2
    28    11    13   am
    29    13    20    1
    30    13    14    1
    31    14    15    1
    32    14    45    1
    33    14    46    1
    34    15    16    1
    35    15    47    1
    36    15    48    1
    37    16    17    1
    38    16    49    1
    39    16    50    1
    40    17    18   am
    41    17    51    1
    42    18    19    2
    43    18    20    1
    44    20    21    1
    45    20    22    1
    46    22    23    1
    47    22    52    1
    48    22    53    1
    49    23    28   ar
    50    23    24   ar
    51    24    25   ar
    52    24    54    1
    53    25    26   ar
    54    25    55    1
    55    26    27   ar
    56    26    56    1
    57    27    28   ar
    58    27    57    1
    59    28    58    1
@<TRIPOS>SUBSTRUCTURE
     1 ZINC000840464592        1 TEMP              0 ****  ****    0 ROOT


##########                                Name:    ZINC000790735374
##########                DOCK_Rotatable_Bonds:                   5
##########                         Heavy_Atoms:                  25
##########                    Molecular_Weight:             353.445
##########                DOCK_Rotatable_Bonds:                   5
##########                       Formal_Charge:                   0
##########                     HBond_Acceptors:                   6
##########                        HBond_Donors:                   1
##########                         Heavy_Atoms:                  25
##########                          Grid_Score:          -28.817871
##########                     Grid_vdw_energy:          -27.839157
##########                      Grid_es_energy:           -0.978714
##########           Internal_energy_repulsive:            8.709430

@<TRIPOS>MOLECULE
ZINC000790735374
 44 47 1 0 0
SMALL
USER_CHARGES


@<TRIPOS>ATOM
      1 O1        -16.0086   -2.4894   59.5554 O.2     1  ZINC000790735374   -0.5100
      2 C2        -15.1085   -2.8662   58.8350 C.2     1  ZINC000790735374    0.5000
      3 N3        -13.8443   -2.4617   59.0685 N.am    1  ZINC000790735374   -0.7200
      4 C4        -13.5581   -1.5620   60.1887 C.3     1  ZINC000790735374    0.1400
      5 C5        -12.1092   -1.7549   60.6406 C.3     1  ZINC000790735374   -0.0300
      6 H6        -12.0692   -2.5367   61.3991 H       1  ZINC000790735374    0.1100
      7 S7        -11.0980   -2.2471   59.2182 S.3     1  ZINC000790735374   -0.2400
      8 C8         -9.4227   -1.9985   59.8860 C.3     1  ZINC000790735374   -0.0800
      9 C9         -9.2546   -0.5142   60.1755 C.3     1  ZINC000790735374   -0.0800
     10 C10       -10.3427    0.0560   61.0402 C.ar    1  ZINC000790735374   -0.0700
     11 C11        -9.9994    1.2427   61.6968 C.ar    1  ZINC000790735374   -0.1200
     12 C12       -10.8921    1.8970   62.5126 C.ar    1  ZINC000790735374   -0.1100
     13 C13       -12.1605    1.3763   62.6899 C.ar    1  ZINC000790735374   -0.1200
     14 C14       -12.5027    0.2061   62.0517 C.ar    1  ZINC000790735374   -0.1100
     15 C15       -11.5934   -0.4640   61.2269 C.ar    1  ZINC000790735374   -0.0800
     16 C16       -15.4028   -3.7918   57.6827 C.3     1  ZINC000790735374    0.0300
     17 H17       -16.3927   -4.2366   57.7852 H       1  ZINC000790735374    0.1500
     18 C18       -15.2647   -3.0534   56.3300 C.3     1  ZINC000790735374   -0.1400
     19 C19       -13.8330   -3.3587   55.9325 C.2     1  ZINC000790735374    0.1200
     20 C20       -13.0555   -2.6562   54.8923 C.ar    1  ZINC000790735374   -0.1000
     21 C21       -13.6588   -1.6804   54.0899 C.ar    1  ZINC000790735374   -0.0400
     22 C22       -12.8858   -1.0512   53.1297 C.ar    1  ZINC000790735374   -0.1700
     23 C23       -11.5551   -1.4029   52.9947 C.ar    1  ZINC000790735374    0.1200
     24 N24       -11.0128   -2.3265   53.7650 N.ar    1  ZINC000790735374   -0.4800
     25 C25       -11.7047   -2.9497   54.6960 C.ar    1  ZINC000790735374    0.1400
     26 N26       -13.4112   -4.3380   56.6599 N.2     1  ZINC000790735374   -0.2700
     27 O27       -14.3887   -4.8105   57.5670 O.3     1  ZINC000790735374   -0.1600
     28 H28       -13.1238   -2.7662   58.4949 H       1  ZINC000790735374    0.4100
     29 H29       -13.7057   -0.5295   59.8722 H       1  ZINC000790735374    0.0800
     30 H30       -14.2301   -1.7877   61.0168 H       1  ZINC000790735374    0.0900
     31 H31        -9.3032   -2.5701   60.8064 H       1  ZINC000790735374    0.0900
     32 H32        -8.6817   -2.3180   59.1531 H       1  ZINC000790735374    0.1100
     33 H33        -8.2972   -0.3623   60.6739 H       1  ZINC000790735374    0.0900
     34 H34        -9.2418    0.0264   59.2291 H       1  ZINC000790735374    0.0900
     35 H35        -9.0103    1.6543   61.5599 H       1  ZINC000790735374    0.1200
     36 H36       -10.6045    2.8106   63.0114 H       1  ZINC000790735374    0.1300
     37 H37       -12.8748    1.8823   63.3226 H       1  ZINC000790735374    0.1300
     38 H38       -13.4935   -0.2011   62.1888 H       1  ZINC000790735374    0.1300
     39 H39       -15.9639   -3.4552   55.5967 H       1  ZINC000790735374    0.1200
     40 H40       -15.4105   -1.9808   56.4580 H       1  ZINC000790735374    0.1100
     41 H41       -14.7005   -1.4255   54.2166 H       1  ZINC000790735374    0.1500
     42 H42       -13.3174   -0.2937   52.4923 H       1  ZINC000790735374    0.1500
     43 H43       -10.9498   -0.9136   52.2458 H       1  ZINC000790735374    0.1600
     44 H44       -11.2255   -3.6999   55.3074 H       1  ZINC000790735374    0.1600
@<TRIPOS>BOND
     1     1     2    2
     2     2     3   am
     3     2    16    1
     4     3     4    1
     5     3    28    1
     6     4     5    1
     7     4    29    1
     8     4    30    1
     9     5     6    1
    10     5    15    1
    11     5     7    1
    12     7     8    1
    13     8     9    1
    14     8    31    1
    15     8    32    1
    16     9    10    1
    17     9    33    1
    18     9    34    1
    19    10    15   ar
    20    10    11   ar
    21    11    12   ar
    22    11    35    1
    23    12    13   ar
    24    12    36    1
    25    13    14   ar
    26    13    37    1
    27    14    15   ar
    28    14    38    1
    29    16    17    1
    30    16    27    1
    31    16    18    1
    32    18    19    1
    33    18    39    1
    34    18    40    1
    35    19    20    1
    36    19    26    2
    37    20    25   ar
    38    20    21   ar
    39    21    22   ar
    40    21    41    1
    41    22    23   ar
    42    22    42    1
    43    23    24   ar
    44    23    43    1
    45    24    25   ar
    46    25    44    1
    47    26    27    1
@<TRIPOS>SUBSTRUCTURE
     1 ZINC000790735374        1 TEMP              0 ****  ****    0 ROOT


##########                                Name:    ZINC000271662144
##########                DOCK_Rotatable_Bonds:                   8
##########                         Heavy_Atoms:                  26
##########                    Molecular_Weight:             390.402
##########                DOCK_Rotatable_Bonds:                   8
##########                       Formal_Charge:          0.00999944
##########                     HBond_Acceptors:                   9
##########                        HBond_Donors:                   3
##########                         Heavy_Atoms:                  26
##########                          Grid_Score:          -28.814396
##########                     Grid_vdw_energy:          -23.320681
##########                      Grid_es_energy:           -5.493714
##########           Internal_energy_repulsive:           13.723699

@<TRIPOS>MOLECULE
ZINC000271662144
 44 45 1 0 0
SMALL
USER_CHARGES


@<TRIPOS>ATOM
      1 C1        -10.8446    2.5435   62.2920 C.3     1  ZINC000271662144   -0.1400
      2 C2        -10.4338    1.1646   62.8124 C.3     1  ZINC000271662144    0.1200
      3 H3         -9.4639    0.8932   62.3956 H       1  ZINC000271662144    0.0600
      4 N4        -11.4363    0.1700   62.4080 N.3     1  ZINC000271662144   -0.6700
      5 C5        -11.3977   -0.0565   60.9570 C.3     1  ZINC000271662144    0.1300
      6 H6        -10.8143    0.7321   60.4817 H       1  ZINC000271662144    0.1100
      7 C7        -10.7514   -1.4130   60.6696 C.3     1  ZINC000271662144   -0.2000
      8 C8         -9.3870   -1.1987   60.0112 C.3     1  ZINC000271662144    0.4600
      9 F9         -8.9066   -2.4196   59.5256 F       1  ZINC000271662144   -0.1800
     10 F10        -9.5173   -0.2943   58.9518 F       1  ZINC000271662144   -0.1800
     11 F11        -8.4895   -0.6863   60.9542 F       1  ZINC000271662144   -0.1700
     12 C12       -12.8014   -0.0426   60.4090 C.ar    1  ZINC000271662144   -0.0900
     13 C13       -13.6598   -1.0914   60.6818 C.ar    1  ZINC000271662144   -0.0600
     14 C14       -14.9473   -1.0798   60.1798 C.ar    1  ZINC000271662144   -0.1600
     15 C15       -15.3776   -0.0168   59.4037 C.ar    1  ZINC000271662144    0.1000
     16 F16       -16.6362   -0.0043   58.9127 F       1  ZINC000271662144   -0.1400
     17 C17       -14.5172    1.0332   59.1315 C.ar    1  ZINC000271662144   -0.1500
     18 C18       -13.2316    1.0216   59.6386 C.ar    1  ZINC000271662144   -0.0700
     19 C19       -10.3417    1.2023   64.3161 C.ar    1  ZINC000271662144   -0.1100
     20 C20       -11.4289    1.6112   65.0650 C.ar    1  ZINC000271662144   -0.0400
     21 C21       -11.3444    1.6457   66.4446 C.ar    1  ZINC000271662144   -0.1400
     22 C22       -10.1728    1.2708   67.0748 C.ar    1  ZINC000271662144   -0.0200
     23 C23        -9.0855    0.8609   66.3257 C.ar    1  ZINC000271662144   -0.6800
     24 S24        -7.5917    0.3836   67.1291 S.o2    1  ZINC000271662144    2.7000
     25 N25        -6.3396    0.8323   66.1425 N.am    1  ZINC000271662144   -1.2500
     26 O26        -7.4899    1.1866   68.2970 O.2     1  ZINC000271662144   -0.9600
     27 O27        -7.5890   -1.0370   67.1600 O.2     1  ZINC000271662144   -0.9600
     28 C28        -9.1714    0.8223   64.9468 C.ar    1  ZINC000271662144   -0.0100
     29 H29       -10.9112    2.5162   61.2043 H       1  ZINC000271662144    0.0600
     30 H30       -11.8146    2.8150   62.7087 H       1  ZINC000271662144    0.0700
     31 H31       -10.1007    3.2816   62.5920 H       1  ZINC000271662144    0.0600
     32 H32       -11.3114   -0.6950   62.9124 H       1  ZINC000271662144    0.3500
     33 H33       -10.6220   -1.9593   61.6039 H       1  ZINC000271662144    0.1100
     34 H34       -11.3921   -1.9861   59.9994 H       1  ZINC000271662144    0.1200
     35 H35       -13.3240   -1.9203   61.2872 H       1  ZINC000271662144    0.1300
     36 H36       -15.6175   -1.8995   60.3924 H       1  ZINC000271662144    0.1400
     37 H37       -14.8515    1.8625   58.5259 H       1  ZINC000271662144    0.1400
     38 H38       -12.5605    1.8408   59.4267 H       1  ZINC000271662144    0.1300
     39 H39       -12.3444    1.9041   64.5726 H       1  ZINC000271662144    0.1400
     40 H40       -12.1938    1.9659   67.0299 H       1  ZINC000271662144    0.1400
     41 H41       -10.1066    1.2985   68.1525 H       1  ZINC000271662144    0.1400
     42 H42        -6.2762    0.4708   65.2446 H       1  ZINC000271662144    0.4200
     43 H43        -5.6697    1.4566   66.4624 H       1  ZINC000271662144    0.4200
     44 H44        -8.3221    0.5021   64.3615 H       1  ZINC000271662144    0.1400
@<TRIPOS>BOND
     1     1     2    1
     2     1    29    1
     3     1    30    1
     4     1    31    1
     5     2     3    1
     6     2     4    1
     7     2    19    1
     8     4     5    1
     9     4    32    1
    10     5     6    1
    11     5     7    1
    12     5    12    1
    13     7     8    1
    14     7    33    1
    15     7    34    1
    16     8     9    1
    17     8    10    1
    18     8    11    1
    19    12    18   ar
    20    12    13   ar
    21    13    14   ar
    22    13    35    1
    23    14    15   ar
    24    14    36    1
    25    15    16    1
    26    15    17   ar
    27    17    18   ar
    28    17    37    1
    29    18    38    1
    30    19    28   ar
    31    19    20   ar
    32    20    21   ar
    33    20    39    1
    34    21    22   ar
    35    21    40    1
    36    22    23   ar
    37    22    41    1
    38    23    24    1
    39    23    28   ar
    40    24    25   am
    41    24    26    2
    42    24    27    2
    43    25    42    1
    44    25    43    1
    45    28    44    1
@<TRIPOS>SUBSTRUCTURE
     1 ZINC000271662144        1 TEMP              0 ****  ****    0 ROOT


##########                                Name:    ZINC001078110631
##########                DOCK_Rotatable_Bonds:                   7
##########                         Heavy_Atoms:                  25
##########                    Molecular_Weight:             353.369
##########                DOCK_Rotatable_Bonds:                   7
##########                       Formal_Charge:           0.0100006
##########                     HBond_Acceptors:                   8
##########                        HBond_Donors:                   2
##########                         Heavy_Atoms:                  25
##########                          Grid_Score:          -28.808447
##########                     Grid_vdw_energy:          -28.565327
##########                      Grid_es_energy:           -0.243120
##########           Internal_energy_repulsive:            5.150248

@<TRIPOS>MOLECULE
ZINC001078110631
 46 48 1 0 0
SMALL
USER_CHARGES


@<TRIPOS>ATOM
      1 O1        -11.7971   -2.8559   52.7791 O.2     1  ZINC001078110631   -0.5100
      2 C2        -12.0779   -2.1232   53.7079 C.2     1  ZINC001078110631    0.5600
      3 N3        -11.7608   -0.8144   53.6533 N.am    1  ZINC001078110631   -0.7200
      4 C4        -11.0724   -0.2758   52.4776 C.3     1  ZINC001078110631    0.1500
      5 H5        -11.4033   -0.7921   51.5764 H       1  ZINC001078110631    0.1200
      6 C6         -9.5435   -0.4116   52.6425 C.3     1  ZINC001078110631    0.0300
      7 N7         -8.9901    0.8256   52.0340 N.3     1  ZINC001078110631   -0.5000
      8 C8         -7.6344    1.0958   52.5311 C.3     1  ZINC001078110631    0.0300
      9 C9         -6.6509    1.0902   51.3591 C.3     1  ZINC001078110631    0.1300
     10 N10        -6.0194    2.4072   51.2453 N.am    1  ZINC001078110631   -0.6200
     11 C11        -6.7477    3.6553   50.9886 C.3     1  ZINC001078110631    0.1000
     12 C12        -5.7742    4.7887   51.3815 C.3     1  ZINC001078110631   -0.1300
     13 C13        -4.4008    4.1020   51.1993 C.3     1  ZINC001078110631   -0.1600
     14 C14        -4.6993    2.6285   51.3681 C.2     1  ZINC001078110631    0.5200
     15 O15        -3.8676    1.7707   51.5766 O.2     1  ZINC001078110631   -0.5200
     16 C16        -9.9339    1.8930   52.4547 C.3     1  ZINC001078110631    0.0000
     17 C17       -11.3315    1.2397   52.3525 C.3     1  ZINC001078110631    0.1000
     18 H18       -11.9702    1.5828   53.1664 H       1  ZINC001078110631    0.0700
     19 O19       -11.9302    1.5433   51.0909 O.3     1  ZINC001078110631   -0.5500
     20 C20       -12.7713   -2.6657   54.8922 C.ar    1  ZINC001078110631   -0.1900
     21 C21       -14.1550   -2.5239   55.0210 C.ar    1  ZINC001078110631   -0.0300
     22 C22       -14.7975   -3.0322   56.1288 C.ar    1  ZINC001078110631   -0.1700
     23 C23       -14.0742   -3.6843   57.1166 C.ar    1  ZINC001078110631    0.1600
     24 F24       -14.7110   -4.1801   58.2001 F       1  ZINC001078110631   -0.1200
     25 C25       -12.7017   -3.8298   56.9968 C.ar    1  ZINC001078110631   -0.2000
     26 C26       -12.0462   -3.3292   55.8883 C.ar    1  ZINC001078110631    0.2000
     27 F27       -10.7078   -3.4710   55.7714 F       1  ZINC001078110631   -0.1000
     28 H28       -11.9885   -0.2290   54.3925 H       1  ZINC001078110631    0.4000
     29 H29        -9.2786   -0.4672   53.6984 H       1  ZINC001078110631    0.0500
     30 H30        -9.1805   -1.2915   52.1116 H       1  ZINC001078110631    0.1000
     31 H31        -7.6136    2.0706   53.0183 H       1  ZINC001078110631    0.0400
     32 H32        -7.3499    0.3254   53.2478 H       1  ZINC001078110631    0.0800
     33 H33        -5.8852    0.3337   51.5309 H       1  ZINC001078110631    0.0900
     34 H34        -7.1858    0.8628   50.4371 H       1  ZINC001078110631    0.0800
     35 H35        -7.0073    3.7302   49.9327 H       1  ZINC001078110631    0.0700
     36 H36        -7.6469    3.7005   51.6030 H       1  ZINC001078110631    0.0800
     37 H37        -5.8764    5.6409   50.7097 H       1  ZINC001078110631    0.0900
     38 H38        -5.9250    5.0905   52.4180 H       1  ZINC001078110631    0.0800
     39 H39        -4.0027    4.3030   50.2048 H       1  ZINC001078110631    0.1100
     40 H40        -3.7021    4.4370   51.9659 H       1  ZINC001078110631    0.1000
     41 H41        -9.7300    2.1979   53.4811 H       1  ZINC001078110631    0.0600
     42 H42        -9.8649    2.7481   51.7823 H       1  ZINC001078110631    0.0900
     43 H43       -12.0054    2.4901   50.9090 H       1  ZINC001078110631    0.3800
     44 H44       -14.7203   -2.0164   54.2534 H       1  ZINC001078110631    0.1500
     45 H45       -15.8672   -2.9223   56.2285 H       1  ZINC001078110631    0.1500
     46 H46       -12.1437   -4.3383   57.7691 H       1  ZINC001078110631    0.1600
@<TRIPOS>BOND
     1     1     2    2
     2     2     3   am
     3     2    20    1
     4     3     4    1
     5     3    28    1
     6     4     5    1
     7     4    17    1
     8     4     6    1
     9     6     7    1
    10     6    29    1
    11     6    30    1
    12     7     8    1
    13     7    16    1
    14     8     9    1
    15     8    31    1
    16     8    32    1
    17     9    10    1
    18     9    33    1
    19     9    34    1
    20    10    14   am
    21    10    11    1
    22    11    12    1
    23    11    35    1
    24    11    36    1
    25    12    13    1
    26    12    37    1
    27    12    38    1
    28    13    14    1
    29    13    39    1
    30    13    40    1
    31    14    15    2
    32    16    17    1
    33    16    41    1
    34    16    42    1
    35    17    18    1
    36    17    19    1
    37    19    43    1
    38    20    26   ar
    39    20    21   ar
    40    21    22   ar
    41    21    44    1
    42    22    23   ar
    43    22    45    1
    44    23    24    1
    45    23    25   ar
    46    25    26   ar
    47    25    46    1
    48    26    27    1
@<TRIPOS>SUBSTRUCTURE
     1 ZINC001078110631        1 TEMP              0 ****  ****    0 ROOT


##########                                Name:    ZINC000647468483
##########                DOCK_Rotatable_Bonds:                   5
##########                         Heavy_Atoms:                  24
##########                    Molecular_Weight:             341.373
##########                DOCK_Rotatable_Bonds:                   5
##########                       Formal_Charge:           0.0300004
##########                     HBond_Acceptors:                   6
##########                        HBond_Donors:                   2
##########                         Heavy_Atoms:                  24
##########                          Grid_Score:          -28.806461
##########                     Grid_vdw_energy:          -20.830051
##########                      Grid_es_energy:           -7.976410
##########           Internal_energy_repulsive:           20.766638

@<TRIPOS>MOLECULE
ZINC000647468483
 46 48 1 0 0
SMALL
USER_CHARGES


@<TRIPOS>ATOM
      1 O1         -7.9596   -1.0147   67.1736 O.co2   1  ZINC000647468483   -0.6800
      2 C2         -7.1994   -0.1168   66.8538 C.2     1  ZINC000647468483    0.5000
      3 O3         -6.0125   -0.1987   67.1207 O.co2   1  ZINC000647468483   -0.6900
      4 C4         -7.7257    1.0917   66.1230 C.3     1  ZINC000647468483   -0.1500
      5 H5         -7.0658    1.9469   66.2686 H       1  ZINC000647468483    0.0800
      6 C6         -9.1669    1.4259   66.5815 C.3     1  ZINC000647468483   -0.1100
      7 C7         -9.7675    2.2123   65.3981 C.3     1  ZINC000647468483   -0.1400
      8 C8         -8.9678    1.8047   64.1483 C.3     1  ZINC000647468483    0.0100
      9 H9         -8.4795    2.6782   63.7161 H       1  ZINC000647468483    0.1400
     10 N10        -9.8607    1.1868   63.1589 N.4     1  ZINC000647468483   -0.5000
     11 H11       -10.1596    0.2831   63.4937 H       1  ZINC000647468483    0.4200
     12 H12       -10.6669    1.7771   63.0185 H       1  ZINC000647468483    0.4300
     13 C13        -9.1444    1.0253   61.8865 C.3     1  ZINC000647468483    0.0200
     14 H14        -8.1998    1.5681   61.9186 H       1  ZINC000647468483    0.1500
     15 C15        -8.8862   -0.4666   61.6127 C.3     1  ZINC000647468483   -0.1400
     16 C16        -9.6070   -0.8035   60.2911 C.3     1  ZINC000647468483   -0.1300
     17 C17       -10.7142    0.2737   60.1771 C.3     1  ZINC000647468483   -0.1300
     18 C18       -10.0129    1.5443   60.7219 C.3     1  ZINC000647468483   -0.0600
     19 H19        -9.3881    1.9954   59.9509 H       1  ZINC000647468483    0.1300
     20 C20       -11.0318    2.5364   61.2206 C.ar    1  ZINC000647468483   -0.1200
     21 C21       -12.3724    2.3494   60.9415 C.ar    1  ZINC000647468483   -0.0700
     22 C22       -13.3073    3.2596   61.3989 C.ar    1  ZINC000647468483   -0.1000
     23 C23       -12.9010    4.3562   62.1357 C.ar    1  ZINC000647468483   -0.0600
     24 C24       -11.5600    4.5427   62.4155 C.ar    1  ZINC000647468483   -0.1600
     25 C25       -11.1171    5.7387   63.2185 C.3     1  ZINC000647468483    0.5000
     26 F26       -12.1954    6.6144   63.3841 F       1  ZINC000647468483   -0.1700
     27 F27       -10.6624    5.3162   64.4722 F       1  ZINC000647468483   -0.1700
     28 F28       -10.0822    6.3957   62.5441 F       1  ZINC000647468483   -0.1700
     29 C29       -10.6260    3.6305   61.9618 C.ar    1  ZINC000647468483   -0.1100
     30 C30        -7.9042    0.7865   64.6151 C.3     1  ZINC000647468483   -0.1200
     31 H31        -9.7328    0.5113   66.7583 H       1  ZINC000647468483    0.0800
     32 H32        -9.1479    2.0435   67.4796 H       1  ZINC000647468483    0.0800
     33 H33       -10.8180    1.9509   65.2709 H       1  ZINC000647468483    0.0700
     34 H34        -9.6675    3.2837   65.5724 H       1  ZINC000647468483    0.1000
     35 H35        -7.8161   -0.6478   61.5111 H       1  ZINC000647468483    0.1000
     36 H36        -9.2922   -1.0709   62.4241 H       1  ZINC000647468483    0.0900
     37 H37        -8.9165   -0.7313   59.4508 H       1  ZINC000647468483    0.0800
     38 H38       -10.0474   -1.7994   60.3398 H       1  ZINC000647468483    0.0900
     39 H39       -11.0123    0.4127   59.1380 H       1  ZINC000647468483    0.0900
     40 H40       -11.5732    0.0116   60.7948 H       1  ZINC000647468483    0.0800
     41 H41       -12.6898    1.4925   60.3658 H       1  ZINC000647468483    0.1400
     42 H42       -14.3547    3.1139   61.1802 H       1  ZINC000647468483    0.1500
     43 H43       -13.6312    5.0676   62.4923 H       1  ZINC000647468483    0.1500
     44 H44        -9.5784    3.7762   62.1805 H       1  ZINC000647468483    0.1400
     45 H45        -6.9686    0.9382   64.0768 H       1  ZINC000647468483    0.0900
     46 H46        -8.2647   -0.2328   64.4755 H       1  ZINC000647468483    0.1000
@<TRIPOS>BOND
     1     1     2   ar
     2     2     3   ar
     3     2     4    1
     4     4     5    1
     5     4    30    1
     6     4     6    1
     7     6     7    1
     8     6    31    1
     9     6    32    1
    10     7     8    1
    11     7    33    1
    12     7    34    1
    13     8     9    1
    14     8    10    1
    15     8    30    1
    16    10    11    1
    17    10    12    1
    18    10    13    1
    19    13    14    1
    20    13    18    1
    21    13    15    1
    22    15    16    1
    23    15    35    1
    24    15    36    1
    25    16    17    1
    26    16    37    1
    27    16    38    1
    28    17    18    1
    29    17    39    1
    30    17    40    1
    31    18    19    1
    32    18    20    1
    33    20    29   ar
    34    20    21   ar
    35    21    22   ar
    36    21    41    1
    37    22    23   ar
    38    22    42    1
    39    23    24   ar
    40    23    43    1
    41    24    25    1
    42    24    29   ar
    43    25    26    1
    44    25    27    1
    45    25    28    1
    46    29    44    1
    47    30    45    1
    48    30    46    1
@<TRIPOS>SUBSTRUCTURE
     1 ZINC000647468483        1 TEMP              0 ****  ****    0 ROOT


##########                                Name:    ZINC000842947763
##########                DOCK_Rotatable_Bonds:                   7
##########                         Heavy_Atoms:                  24
##########                    Molecular_Weight:             365.373
##########                DOCK_Rotatable_Bonds:                   7
##########                       Formal_Charge:          0.00999997
##########                     HBond_Acceptors:                   9
##########                        HBond_Donors:                   0
##########                         Heavy_Atoms:                  24
##########                          Grid_Score:          -28.789886
##########                     Grid_vdw_energy:          -27.755865
##########                      Grid_es_energy:           -1.034021
##########           Internal_energy_repulsive:           29.954168

@<TRIPOS>MOLECULE
ZINC000842947763
 42 43 1 0 0
SMALL
USER_CHARGES


@<TRIPOS>ATOM
      1 C1         -8.2604    0.7689   64.5597 C.3     1  ZINC000842947763   -0.1600
      2 C2         -9.4813    0.8487   63.6411 C.3     1  ZINC000842947763   -0.1000
      3 H3        -10.3014    0.2778   64.0764 H       1  ZINC000842947763    0.1000
      4 C4         -9.1270    0.2683   62.2704 C.3     1  ZINC000842947763    0.0800
      5 O5        -10.2154   -0.5724   61.8049 O.3     1  ZINC000842947763   -0.3500
      6 C6         -9.9847   -1.3201   60.7077 C.2     1  ZINC000842947763    0.5200
      7 O7         -8.8445   -1.5260   60.3415 O.2     1  ZINC000842947763   -0.5100
      8 C8        -11.1154   -1.8879   59.9517 C.ar    1  ZINC000842947763   -0.1600
      9 C9        -10.9073   -2.4457   58.6864 C.ar    1  ZINC000842947763   -0.0200
     10 C10       -11.9654   -2.9735   57.9871 C.ar    1  ZINC000842947763   -0.1700
     11 C11       -13.2543   -2.9564   58.5340 C.ar    1  ZINC000842947763    0.2000
     12 C12       -13.4508   -2.3997   59.7924 C.ar    1  ZINC000842947763   -0.1500
     13 C13       -12.4027   -1.8777   60.4969 C.ar    1  ZINC000842947763   -0.0100
     14 C14       -14.9188   -2.5105   60.1407 C.3     1  ZINC000842947763   -0.0800
     15 C15       -15.5508   -3.2035   58.9226 C.3     1  ZINC000842947763    0.1100
     16 N16       -14.4419   -3.4340   57.9933 N.am    1  ZINC000842947763   -0.9400
     17 S17       -14.5835   -4.1591   56.5112 S.o2    1  ZINC000842947763    2.6100
     18 C18       -15.7388   -3.1002   55.5978 C.3     1  ZINC000842947763   -0.6700
     19 O19       -13.2797   -4.0726   55.9527 O.2     1  ZINC000842947763   -0.9300
     20 O20       -15.1778   -5.4187   56.7927 O.2     1  ZINC000842947763   -0.9400
     21 C21        -9.9052    2.3101   63.4819 C.3     1  ZINC000842947763   -0.1600
     22 C22       -11.4160    2.4286   63.6929 C.3     1  ZINC000842947763    0.4600
     23 F23       -12.0840    1.7142   62.6927 F       1  ZINC000842947763   -0.1800
     24 F24       -11.7545    1.9051   64.9453 F       1  ZINC000842947763   -0.1800
     25 F25       -11.7909    3.7751   63.6336 F       1  ZINC000842947763   -0.1800
     26 H26        -8.5487    1.0506   65.5725 H       1  ZINC000842947763    0.0700
     27 H27        -7.8733   -0.2500   64.5621 H       1  ZINC000842947763    0.0700
     28 H28        -7.4892    1.4497   64.1990 H       1  ZINC000842947763    0.0600
     29 H29        -8.9671    1.0811   61.5620 H       1  ZINC000842947763    0.0800
     30 H30        -8.2174   -0.3269   62.3520 H       1  ZINC000842947763    0.0800
     31 H31        -9.9156   -2.4612   58.2590 H       1  ZINC000842947763    0.1500
     32 H32       -11.8022   -3.4039   57.0100 H       1  ZINC000842947763    0.1500
     33 H33       -12.5707   -1.4488   61.4737 H       1  ZINC000842947763    0.1400
     34 H34       -15.0528   -3.1176   61.0361 H       1  ZINC000842947763    0.1000
     35 H35       -15.3522   -1.5204   60.2828 H       1  ZINC000842947763    0.1000
     36 H36       -16.0000   -4.1518   59.2179 H       1  ZINC000842947763    0.1000
     37 H37       -16.2990   -2.5561   58.4651 H       1  ZINC000842947763    0.0900
     38 H38       -15.3263   -2.0940   55.5209 H       1  ZINC000842947763    0.1300
     39 H39       -15.8923   -3.5072   54.5983 H       1  ZINC000842947763    0.1400
     40 H40       -16.6920   -3.0626   56.1251 H       1  ZINC000842947763    0.1300
     41 H41        -9.3863    2.9215   64.2202 H       1  ZINC000842947763    0.1200
     42 H42        -9.6501    2.6554   62.4800 H       1  ZINC000842947763    0.1100
@<TRIPOS>BOND
     1     1     2    1
     2     1    26    1
     3     1    27    1
     4     1    28    1
     5     2     3    1
     6     2     4    1
     7     2    21    1
     8     4     5    1
     9     4    29    1
    10     4    30    1
    11     5     6    1
    12     6     7    2
    13     6     8    1
    14     8    13   ar
    15     8     9   ar
    16     9    10   ar
    17     9    31    1
    18    10    11   ar
    19    10    32    1
    20    11    16    1
    21    11    12   ar
    22    12    13   ar
    23    12    14    1
    24    13    33    1
    25    14    15    1
    26    14    34    1
    27    14    35    1
    28    15    16    1
    29    15    36    1
    30    15    37    1
    31    16    17   am
    32    17    18    1
    33    17    19    2
    34    17    20    2
    35    18    38    1
    36    18    39    1
    37    18    40    1
    38    21    22    1
    39    21    41    1
    40    21    42    1
    41    22    23    1
    42    22    24    1
    43    22    25    1
@<TRIPOS>SUBSTRUCTURE
     1 ZINC000842947763        1 TEMP              0 ****  ****    0 ROOT


##########                                Name:    ZINC001067316277
##########                DOCK_Rotatable_Bonds:                   5
##########                         Heavy_Atoms:                  24
##########                    Molecular_Weight:             345.469
##########                DOCK_Rotatable_Bonds:                   5
##########                       Formal_Charge:          -0.0200007
##########                     HBond_Acceptors:                   7
##########                        HBond_Donors:                   2
##########                         Heavy_Atoms:                  24
##########                          Grid_Score:          -28.745676
##########                     Grid_vdw_energy:          -27.207069
##########                      Grid_es_energy:           -1.538606
##########           Internal_energy_repulsive:            8.514535

@<TRIPOS>MOLECULE
ZINC001067316277
 47 49 1 0 0
SMALL
USER_CHARGES


@<TRIPOS>ATOM
      1 C1        -14.0273   -0.2621   49.7510 C.3     1  ZINC001067316277   -0.1400
      2 S2        -15.2320   -0.2324   51.1015 S.3     1  ZINC001067316277   -0.0400
      3 C3        -14.1535   -0.4450   52.4784 C.ar    1  ZINC001067316277    0.1800
      4 C4        -14.6331   -0.9732   53.6796 C.ar    1  ZINC001067316277   -0.2400
      5 C5        -13.7517   -1.1219   54.7322 C.ar    1  ZINC001067316277    0.1900
      6 N6        -12.4861   -0.7622   54.5741 N.ar    1  ZINC001067316277   -0.5600
      7 C7        -12.0580   -0.2638   53.4233 C.ar    1  ZINC001067316277    0.5100
      8 N8        -10.7286    0.0998   53.2983 N.3     1  ZINC001067316277   -0.4600
      9 C9        -10.0403   -0.7506   52.3187 C.3     1  ZINC001067316277    0.0700
     10 C10        -8.5465   -0.4180   52.3130 C.3     1  ZINC001067316277   -0.1300
     11 C11        -8.3588    1.0590   51.9557 C.3     1  ZINC001067316277    0.1600
     12 H12        -8.7429    1.2427   50.9524 H       1  ZINC001067316277    0.0900
     13 N13        -6.9341    1.3972   52.0041 N.am    1  ZINC001067316277   -0.7200
     14 C14        -6.3227    1.8970   50.9119 C.2     1  ZINC001067316277    0.5900
     15 O15        -6.9537    2.0660   49.8851 O.2     1  ZINC001067316277   -0.5300
     16 C16        -4.8968    2.2372   50.9608 C.2     1  ZINC001067316277   -0.0600
     17 C17        -4.1512    2.7732   49.9324 C.2     1  ZINC001067316277   -0.1000
     18 C18        -2.8479    2.9370   50.4120 C.2     1  ZINC001067316277   -0.2100
     19 C19        -2.8208    2.5078   51.6965 C.2     1  ZINC001067316277    0.0300
     20 N20        -4.0608    2.0851   52.0437 N.pl3   1  ZINC001067316277   -0.5400
     21 C21        -9.1252    1.9210   52.9628 C.3     1  ZINC001067316277   -0.0700
     22 C22        -8.5494    1.7036   54.3636 C.3     1  ZINC001067316277   -0.1400
     23 C23        -8.9915    3.3960   52.5787 C.3     1  ZINC001067316277   -0.1400
     24 C24       -10.6022    1.5206   52.9497 C.3     1  ZINC001067316277    0.0800
     25 N25       -12.8694   -0.1102   52.3880 N.ar    1  ZINC001067316277   -0.5400
     26 H26       -13.3128    0.5503   49.8836 H       1  ZINC001067316277    0.0900
     27 H27       -13.4986   -1.2154   49.7566 H       1  ZINC001067316277    0.0900
     28 H28       -14.5447   -0.1392   48.7996 H       1  ZINC001067316277    0.1000
     29 H29       -15.6697   -1.2583   53.7828 H       1  ZINC001067316277    0.1500
     30 H30       -14.0902   -1.5267   55.6745 H       1  ZINC001067316277    0.1700
     31 H31       -10.1781   -1.7981   52.5867 H       1  ZINC001067316277    0.1000
     32 H32       -10.4560   -0.5718   51.3271 H       1  ZINC001067316277    0.0500
     33 H33        -8.1272   -0.6097   53.3007 H       1  ZINC001067316277    0.0800
     34 H34        -8.0384   -1.0384   51.5747 H       1  ZINC001067316277    0.0800
     35 H35        -6.4309    1.2614   52.8222 H       1  ZINC001067316277    0.3900
     36 H36        -4.5065    3.0197   48.9429 H       1  ZINC001067316277    0.1500
     37 H37        -2.0113    3.3348   49.8568 H       1  ZINC001067316277    0.1500
     38 H38        -1.9534    2.5061   52.3400 H       1  ZINC001067316277    0.1700
     39 H39        -4.3154    1.7293   52.9095 H       1  ZINC001067316277    0.4100
     40 H40        -7.4965    1.9856   54.3715 H       1  ZINC001067316277    0.0500
     41 H41        -9.0953    2.3175   55.0800 H       1  ZINC001067316277    0.0600
     42 H42        -8.6461    0.6530   54.6372 H       1  ZINC001067316277    0.0700
     43 H43        -9.4031    3.5504   51.5814 H       1  ZINC001067316277    0.0600
     44 H44        -9.5371    4.0090   53.2960 H       1  ZINC001067316277    0.0600
     45 H45        -7.9389    3.6791   52.5854 H       1  ZINC001067316277    0.0600
     46 H46       -11.0152    1.6887   51.9551 H       1  ZINC001067316277    0.0600
     47 H47       -11.1481    2.1228   53.6760 H       1  ZINC001067316277    0.1000
@<TRIPOS>BOND
     1     1     2    1
     2     1    26    1
     3     1    27    1
     4     1    28    1
     5     2     3    1
     6     3    25   ar
     7     3     4   ar
     8     4     5   ar
     9     4    29    1
    10     5     6   ar
    11     5    30    1
    12     6     7   ar
    13     7     8    1
    14     7    25   ar
    15     8    24    1
    16     8     9    1
    17     9    10    1
    18     9    31    1
    19     9    32    1
    20    10    11    1
    21    10    33    1
    22    10    34    1
    23    11    12    1
    24    11    13    1
    25    11    21    1
    26    13    14   am
    27    13    35    1
    28    14    15    2
    29    14    16    1
    30    16    20    1
    31    16    17    2
    32    17    18    1
    33    17    36    1
    34    18    19    2
    35    18    37    1
    36    19    20    1
    37    19    38    1
    38    20    39    1
    39    21    22    1
    40    21    23    1
    41    21    24    1
    42    22    40    1
    43    22    41    1
    44    22    42    1
    45    23    43    1
    46    23    44    1
    47    23    45    1
    48    24    46    1
    49    24    47    1
@<TRIPOS>SUBSTRUCTURE
     1 ZINC001067316277        1 TEMP              0 ****  ****    0 ROOT


##########                                Name:    ZINC000458730620
##########                DOCK_Rotatable_Bonds:                   9
##########                         Heavy_Atoms:                  25
##########                    Molecular_Weight:              375.44
##########                DOCK_Rotatable_Bonds:                   9
##########                       Formal_Charge:        -1.86265e-07
##########                     HBond_Acceptors:                   9
##########                        HBond_Donors:                   3
##########                         Heavy_Atoms:                  25
##########                          Grid_Score:          -28.726501
##########                     Grid_vdw_energy:          -29.460787
##########                      Grid_es_energy:            0.734285
##########           Internal_energy_repulsive:           40.564796

@<TRIPOS>MOLECULE
ZINC000458730620
 48 49 1 0 0
SMALL
USER_CHARGES


@<TRIPOS>ATOM
      1 C1         -5.9582    3.8882   50.5966 C.3     1  ZINC000458730620   -0.1600
      2 C2         -4.7843    3.2400   51.3334 C.3     1  ZINC000458730620    0.2000
      3 C3         -4.9397    1.7183   51.3013 C.3     1  ZINC000458730620   -0.1600
      4 N4         -3.5289    3.6165   50.6786 N.am    1  ZINC000458730620   -0.7400
      5 C5         -2.3498    3.2742   51.2346 C.2     1  ZINC000458730620    0.7100
      6 O6         -2.3280    2.6542   52.2804 O.2     1  ZINC000458730620   -0.5800
      7 N7         -1.1950    3.6192   50.6315 N.am    1  ZINC000458730620   -0.7500
      8 C8          0.0866    3.2455   51.2350 C.3     1  ZINC000458730620    0.1300
      9 C9          0.3068    1.7401   51.0733 C.3     1  ZINC000458730620    0.1000
     10 N10         1.6639    1.3960   51.5050 N.am    1  ZINC000458730620   -1.1100
     11 S11         2.4701    0.1432   50.7817 S.o2    1  ZINC000458730620    2.7000
     12 O12         3.7911    0.1610   51.3051 O.2     1  ZINC000458730620   -0.9400
     13 O13         1.6147   -0.9881   50.8691 O.2     1  ZINC000458730620   -0.9400
     14 C14         2.6082    0.5315   49.0687 C.ar    1  ZINC000458730620   -0.7300
     15 C15         1.8067   -0.1149   48.1471 C.ar    1  ZINC000458730620    0.0400
     16 C16         1.9137    0.1892   46.8029 C.ar    1  ZINC000458730620   -0.1800
     17 C17         2.8241    1.1419   46.3784 C.ar    1  ZINC000458730620    0.1900
     18 F18         2.9281    1.4391   45.0646 F       1  ZINC000458730620   -0.1200
     19 C19         3.6276    1.7902   47.3007 C.ar    1  ZINC000458730620   -0.2100
     20 C20         3.5160    1.4887   48.6469 C.ar    1  ZINC000458730620    0.2200
     21 F21         4.2995    2.1205   49.5480 F       1  ZINC000458730620   -0.1100
     22 C22        -4.7659    3.7204   52.7859 C.3     1  ZINC000458730620   -0.1100
     23 C23        -4.1138    5.1008   52.9699 C.3     1  ZINC000458730620   -0.1400
     24 C24        -5.2277    5.4044   53.9857 C.3     1  ZINC000458730620   -0.1400
     25 C25        -6.0847    4.3706   53.2364 C.3     1  ZINC000458730620   -0.1400
     26 H26        -6.8952    3.5590   51.0455 H       1  ZINC000458730620    0.0600
     27 H27        -5.8803    4.9728   50.6723 H       1  ZINC000458730620    0.0500
     28 H28        -5.9351    3.5948   49.5471 H       1  ZINC000458730620    0.0800
     29 H29        -4.9528    1.3761   50.2665 H       1  ZINC000458730620    0.0800
     30 H30        -4.1035    1.2565   51.8261 H       1  ZINC000458730620    0.0500
     31 H31        -5.8738    1.4382   51.7884 H       1  ZINC000458730620    0.0600
     32 H32        -3.5463    4.1121   49.8450 H       1  ZINC000458730620    0.3900
     33 H33        -1.2124    4.1148   49.7979 H       1  ZINC000458730620    0.4000
     34 H34         0.8929    3.7859   50.7393 H       1  ZINC000458730620    0.0800
     35 H35         0.0769    3.4995   52.2950 H       1  ZINC000458730620    0.0800
     36 H36        -0.4166    1.1994   51.6836 H       1  ZINC000458730620    0.0900
     37 H37         0.1775    1.4643   50.0268 H       1  ZINC000458730620    0.0700
     38 H38         2.0902    1.9020   52.2142 H       1  ZINC000458730620    0.4300
     39 H39         1.0965   -0.8584   48.4773 H       1  ZINC000458730620    0.1700
     40 H40         1.2870   -0.3169   46.0836 H       1  ZINC000458730620    0.1600
     41 H41         4.3382    2.5334   46.9705 H       1  ZINC000458730620    0.1600
     42 H42        -4.3934    2.9644   53.4770 H       1  ZINC000458730620    0.1100
     43 H43        -3.1188    5.0582   53.4128 H       1  ZINC000458730620    0.0700
     44 H44        -4.1545    5.7255   52.0775 H       1  ZINC000458730620    0.0800
     45 H45        -4.9807    5.1098   55.0057 H       1  ZINC000458730620    0.0800
     46 H46        -5.6136    6.4217   53.9196 H       1  ZINC000458730620    0.0700
     47 H47        -6.6643    4.7956   52.4168 H       1  ZINC000458730620    0.0800
     48 H48        -6.6808    3.7384   53.8944 H       1  ZINC000458730620    0.0700
@<TRIPOS>BOND
     1     1     2    1
     2     1    26    1
     3     1    27    1
     4     1    28    1
     5     2     3    1
     6     2     4    1
     7     2    22    1
     8     3    29    1
     9     3    30    1
    10     3    31    1
    11     4     5   am
    12     4    32    1
    13     5     6    2
    14     5     7   am
    15     7     8    1
    16     7    33    1
    17     8     9    1
    18     8    34    1
    19     8    35    1
    20     9    10    1
    21     9    36    1
    22     9    37    1
    23    10    11   am
    24    10    38    1
    25    11    12    2
    26    11    13    2
    27    11    14    1
    28    14    20   ar
    29    14    15   ar
    30    15    16   ar
    31    15    39    1
    32    16    17   ar
    33    16    40    1
    34    17    18    1
    35    17    19   ar
    36    19    20   ar
    37    19    41    1
    38    20    21    1
    39    22    25    1
    40    22    23    1
    41    22    42    1
    42    23    24    1
    43    23    43    1
    44    23    44    1
    45    24    25    1
    46    24    45    1
    47    24    46    1
    48    25    47    1
    49    25    48    1
@<TRIPOS>SUBSTRUCTURE
     1 ZINC000458730620        1 TEMP              0 ****  ****    0 ROOT


##########                                Name:    ZINC001060620810
##########                DOCK_Rotatable_Bonds:                   5
##########                         Heavy_Atoms:                  24
##########                    Molecular_Weight:             332.421
##########                DOCK_Rotatable_Bonds:                   5
##########                       Formal_Charge:           0.0299998
##########                     HBond_Acceptors:                   6
##########                        HBond_Donors:                   2
##########                         Heavy_Atoms:                  24
##########                          Grid_Score:          -28.721998
##########                     Grid_vdw_energy:          -27.608244
##########                      Grid_es_energy:           -1.113755
##########           Internal_energy_repulsive:            8.401149

@<TRIPOS>MOLECULE
ZINC001060620810
 49 52 1 0 0
SMALL
USER_CHARGES


@<TRIPOS>ATOM
      1 O1         -0.6730    4.6158   51.0227 O.2     1  ZINC001060620810   -0.5400
      2 C2         -0.5846    3.6038   51.6854 C.2     1  ZINC001060620810    0.5500
      3 N3         -1.6993    2.9837   52.1205 N.am    1  ZINC001060620810   -0.7200
      4 C4         -3.0178    3.5310   51.7915 C.3     1  ZINC001060620810    0.1400
      5 C5         -3.4999    2.9379   50.4661 C.3     1  ZINC001060620810   -0.1300
      6 C6         -4.8769    3.5094   50.1224 C.3     1  ZINC001060620810   -0.1300
      7 C7         -5.8685    3.1525   51.2317 C.3     1  ZINC001060620810    0.1600
      8 N8         -5.9611    1.6955   51.3535 N.pl3   1  ZINC001060620810   -0.6900
      9 C9         -7.1645    1.1046   51.7029 C.ar    1  ZINC001060620810    0.5600
     10 N10        -8.2365    1.8665   51.8602 N.ar    1  ZINC001060620810   -0.5400
     11 C11        -9.4024    1.3346   52.1889 C.ar    1  ZINC001060620810    0.1700
     12 C12        -9.4904   -0.0373   52.3790 C.ar    1  ZINC001060620810   -0.0700
     13 F13       -10.6640   -0.6135   52.7198 F       1  ZINC001060620810   -0.1300
     14 C14        -8.3460   -0.8042   52.2109 C.ar    1  ZINC001060620810    0.1800
     15 N15        -7.2135   -0.2075   51.8767 N.ar    1  ZINC001060620810   -0.5500
     16 C16        -5.3864    3.7455   52.5571 C.3     1  ZINC001060620810   -0.1200
     17 C17        -4.0094    3.1739   52.9006 C.3     1  ZINC001060620810   -0.1300
     18 C18         0.7717    3.0398   52.0222 C.3     1  ZINC001060620810   -0.1500
     19 C19         1.0316    2.7680   53.4981 C.3     1  ZINC001060620810   -0.1500
     20 C20         1.6907    3.9505   52.8213 C.3     1  ZINC001060620810   -0.1100
     21 H21         1.3046    4.9318   53.0969 H       1  ZINC001060620810    0.1100
     22 C22         3.2023    3.8971   52.6230 C.3     1  ZINC001060620810   -0.0900
     23 C23         3.5435    3.2382   51.2864 C.3     1  ZINC001060620810   -0.1200
     24 C24         2.8411    1.8773   51.2191 C.3     1  ZINC001060620810   -0.1200
     25 C25         1.3512    2.1097   50.9680 C.3     1  ZINC001060620810   -0.0800
     26 H26        -1.6285    2.1751   52.6515 H       1  ZINC001060620810    0.4000
     27 H27        -2.9489    4.6151   51.7008 H       1  ZINC001060620810    0.0900
     28 H28        -2.7935    3.1922   49.6758 H       1  ZINC001060620810    0.0700
     29 H29        -3.5688    1.8539   50.5568 H       1  ZINC001060620810    0.0600
     30 H30        -5.2204    3.0869   49.1782 H       1  ZINC001060620810    0.0700
     31 H31        -4.8080    4.5935   50.0317 H       1  ZINC001060620810    0.0800
     32 H32        -6.8495    3.5597   50.9868 H       1  ZINC001060620810    0.1000
     33 H33        -5.1798    1.1445   51.1895 H       1  ZINC001060620810    0.4100
     34 H34       -10.2737    1.9606   52.3121 H       1  ZINC001060620810    0.1800
     35 H35        -8.3794   -1.8744   52.3515 H       1  ZINC001060620810    0.1800
     36 H36        -6.0929    3.4913   53.3472 H       1  ZINC001060620810    0.0800
     37 H37        -5.3175    4.8296   52.4663 H       1  ZINC001060620810    0.0900
     38 H38        -4.0783    2.0900   52.9913 H       1  ZINC001060620810    0.0700
     39 H39        -3.6659    3.5966   53.8449 H       1  ZINC001060620810    0.0800
     40 H40         0.2257    2.9829   54.1997 H       1  ZINC001060620810    0.1000
     41 H41         1.6604    1.9140   53.7501 H       1  ZINC001060620810    0.1100
     42 H42         3.6340    3.3118   53.4349 H       1  ZINC001060620810    0.0700
     43 H43         3.6159    4.9053   52.6449 H       1  ZINC001060620810    0.0700
     44 H44         4.6218    3.0975   51.2123 H       1  ZINC001060620810    0.0700
     45 H45         3.1971    3.8696   50.4681 H       1  ZINC001060620810    0.0700
     46 H46         2.9750    1.3493   52.1633 H       1  ZINC001060620810    0.0700
     47 H47         3.2620    1.2880   50.4044 H       1  ZINC001060620810    0.0700
     48 H48         0.8271    1.1545   51.0038 H       1  ZINC001060620810    0.0700
     49 H49         1.2184    2.5559   49.9824 H       1  ZINC001060620810    0.0700
@<TRIPOS>BOND
     1     1     2    2
     2     2     3   am
     3     2    18    1
     4     3     4    1
     5     3    26    1
     6     4    17    1
     7     4     5    1
     8     4    27    1
     9     5     6    1
    10     5    28    1
    11     5    29    1
    12     6     7    1
    13     6    30    1
    14     6    31    1
    15     7     8    1
    16     7    16    1
    17     7    32    1
    18     8     9    1
    19     8    33    1
    20     9    15   ar
    21     9    10   ar
    22    10    11   ar
    23    11    12   ar
    24    11    34    1
    25    12    13    1
    26    12    14   ar
    27    14    15   ar
    28    14    35    1
    29    16    17    1
    30    16    36    1
    31    16    37    1
    32    17    38    1
    33    17    39    1
    34    18    20    1
    35    18    25    1
    36    18    19    1
    37    19    20    1
    38    19    40    1
    39    19    41    1
    40    20    21    1
    41    20    22    1
    42    22    23    1
    43    22    42    1
    44    22    43    1
    45    23    24    1
    46    23    44    1
    47    23    45    1
    48    24    25    1
    49    24    46    1
    50    24    47    1
    51    25    48    1
    52    25    49    1
@<TRIPOS>SUBSTRUCTURE
     1 ZINC001060620810        1 TEMP              0 ****  ****    0 ROOT


##########                                Name:    ZINC000979274057
##########                DOCK_Rotatable_Bonds:                   6
##########                         Heavy_Atoms:                  24
##########                    Molecular_Weight:              330.39
##########                DOCK_Rotatable_Bonds:                   6
##########                       Formal_Charge:          0.00999946
##########                     HBond_Acceptors:                   8
##########                        HBond_Donors:                   1
##########                         Heavy_Atoms:                  24
##########                          Grid_Score:          -28.712221
##########                     Grid_vdw_energy:          -26.920719
##########                      Grid_es_energy:           -1.791502
##########           Internal_energy_repulsive:            9.053336

@<TRIPOS>MOLECULE
ZINC000979274057
 46 48 1 0 0
SMALL
USER_CHARGES


@<TRIPOS>ATOM
      1 C1         -2.2158    4.0932   51.4289 C.3     1  ZINC000979274057   -0.1400
      2 C2         -3.5107    4.5284   52.1178 C.3     1  ZINC000979274057    0.1000
      3 H3         -3.4443    5.5836   52.3830 H       1  ZINC000979274057    0.0600
      4 N4         -3.7107    3.7294   53.3342 N.3     1  ZINC000979274057   -0.6700
      5 C5         -3.3836    4.5089   54.5357 C.3     1  ZINC000979274057    0.1300
      6 C6         -2.6181    3.6433   55.5031 C.ar    1  ZINC000979274057    0.3200
      7 N7         -1.3013    3.6302   55.4487 N.ar    1  ZINC000979274057   -0.5200
      8 C8         -0.5957    2.8826   56.2819 C.ar    1  ZINC000979274057    0.1500
      9 C9         -1.2599    2.1075   57.2196 C.ar    1  ZINC000979274057   -0.2300
     10 C10        -2.6450    2.1477   57.2460 C.ar    1  ZINC000979274057    0.1500
     11 N11        -3.2831    2.9236   56.3846 N.ar    1  ZINC000979274057   -0.5000
     12 C12        -4.6906    4.3147   51.1676 C.3     1  ZINC000979274057    0.0800
     13 H13        -4.5328    4.8907   50.2558 H       1  ZINC000979274057    0.0700
     14 C14        -5.9852    4.7759   51.8469 C.3     1  ZINC000979274057    0.0800
     15 N15        -7.1201    4.3893   50.9937 N.am    1  ZINC000979274057   -0.6000
     16 C16        -8.0657    5.2856   50.6490 C.2     1  ZINC000979274057    0.6100
     17 O17        -7.9887    6.4332   51.0442 O.2     1  ZINC000979274057   -0.5400
     18 C18        -9.1927    4.8753   49.7935 C.2     1  ZINC000979274057   -0.0600
     19 C19       -10.4075    4.4251   50.2208 C.2     1  ZINC000979274057    0.0400
     20 N20       -11.1408    4.1623   49.1136 N.pl3   1  ZINC000979274057   -0.4600
     21 C21       -12.5155    3.6566   49.0879 C.3     1  ZINC000979274057    0.0700
     22 C22       -10.3734    4.4518   48.0307 C.2     1  ZINC000979274057    0.1900
     23 N23        -9.2135    4.8818   48.4360 N.2     1  ZINC000979274057   -0.4600
     24 C24        -7.1919    2.9954   50.5278 C.3     1  ZINC000979274057    0.0500
     25 C25        -5.8385    2.6210   49.9128 C.3     1  ZINC000979274057    0.0500
     26 O26        -4.7970    2.9264   50.8431 O.3     1  ZINC000979274057   -0.3600
     27 H27        -1.3752    4.2455   52.1059 H       1  ZINC000979274057    0.0600
     28 H28        -2.2821    3.0380   51.1638 H       1  ZINC000979274057    0.0700
     29 H29        -2.0673    4.6860   50.5263 H       1  ZINC000979274057    0.0600
     30 H30        -4.6529    3.3715   53.3809 H       1  ZINC000979274057    0.3500
     31 H31        -2.7740    5.3683   54.2564 H       1  ZINC000979274057    0.1000
     32 H32        -4.3040    4.8540   55.0066 H       1  ZINC000979274057    0.0600
     33 H33         0.4831    2.8761   56.2318 H       1  ZINC000979274057    0.1700
     34 H34        -0.7113    1.4869   57.9126 H       1  ZINC000979274057    0.1500
     35 H35        -3.1961    1.5568   57.9626 H       1  ZINC000979274057    0.1700
     36 H36        -6.0789    4.2972   52.8217 H       1  ZINC000979274057    0.0700
     37 H37        -5.9699    5.8589   51.9691 H       1  ZINC000979274057    0.1000
     38 H38       -10.7236    4.3018   51.2461 H       1  ZINC000979274057    0.1900
     39 H39       -13.2114    4.4956   49.0876 H       1  ZINC000979274057    0.0800
     40 H40       -12.6662    3.0592   48.1887 H       1  ZINC000979274057    0.0900
     41 H41       -12.6920    3.0387   49.9683 H       1  ZINC000979274057    0.0900
     42 H42       -10.6780    4.3463   47.0000 H       1  ZINC000979274057    0.2100
     43 H43        -7.4071    2.3374   51.3698 H       1  ZINC000979274057    0.0700
     44 H44        -7.9757    2.8993   49.7765 H       1  ZINC000979274057    0.1500
     45 H45        -5.8238    1.5546   49.6870 H       1  ZINC000979274057    0.1100
     46 H46        -5.6853    3.1901   48.9959 H       1  ZINC000979274057    0.0500
@<TRIPOS>BOND
     1     1     2    1
     2     1    27    1
     3     1    28    1
     4     1    29    1
     5     2     3    1
     6     2     4    1
     7     2    12    1
     8     4     5    1
     9     4    30    1
    10     5     6    1
    11     5    31    1
    12     5    32    1
    13     6    11   ar
    14     6     7   ar
    15     7     8   ar
    16     8     9   ar
    17     8    33    1
    18     9    10   ar
    19     9    34    1
    20    10    11   ar
    21    10    35    1
    22    12    13    1
    23    12    26    1
    24    12    14    1
    25    14    15    1
    26    14    36    1
    27    14    37    1
    28    15    16   am
    29    15    24    1
    30    16    17    2
    31    16    18    1
    32    18    23    1
    33    18    19    2
    34    19    20    1
    35    19    38    1
    36    20    21    1
    37    20    22    1
    38    21    39    1
    39    21    40    1
    40    21    41    1
    41    22    23    2
    42    22    42    1
    43    24    25    1
    44    24    43    1
    45    24    44    1
    46    25    26    1
    47    25    45    1
    48    25    46    1
@<TRIPOS>SUBSTRUCTURE
     1 ZINC000979274057        1 TEMP              0 ****  ****    0 ROOT


##########                                Name:    ZINC000416583757
##########                DOCK_Rotatable_Bonds:                   7
##########                         Heavy_Atoms:                  20
##########                    Molecular_Weight:             380.693
##########                DOCK_Rotatable_Bonds:                   7
##########                       Formal_Charge:         1.04308e-07
##########                     HBond_Acceptors:                   7
##########                        HBond_Donors:                   1
##########                         Heavy_Atoms:                  20
##########                          Grid_Score:          -28.692699
##########                     Grid_vdw_energy:          -27.462961
##########                      Grid_es_energy:           -1.229739
##########           Internal_energy_repulsive:            7.568937

@<TRIPOS>MOLECULE
ZINC000416583757
 35 35 1 0 0
SMALL
USER_CHARGES


@<TRIPOS>ATOM
      1 C1         -2.6536    2.3552   56.9183 C.3     1  ZINC000416583757   -0.1500
      2 C2         -3.6351    2.7657   55.8188 C.3     1  ZINC000416583757   -0.0200
      3 H3         -3.5075    2.1127   54.9554 H       1  ZINC000416583757    0.1200
      4 C4         -5.0133    2.6489   56.3229 C.1     1  ZINC000416583757    0.2100
      5 N5         -6.0767    2.5587   56.7119 N.1     1  ZINC000416583757   -0.4200
      6 C6         -3.3636    4.2141   55.4074 C.3     1  ZINC000416583757    0.1300
      7 N7         -2.2692    4.2481   54.4341 N.am    1  ZINC000416583757   -1.0100
      8 C8         -0.8803    4.3130   54.8955 C.3     1  ZINC000416583757    0.0800
      9 S9         -2.6020    4.2135   52.8122 S.o2    1  ZINC000416583757    2.7800
     10 O10        -3.5219    5.2689   52.5688 O.2     1  ZINC000416583757   -0.9700
     11 O11        -1.3506    4.1045   52.1480 O.2     1  ZINC000416583757   -0.9700
     12 N12        -3.4166    2.8039   52.5089 N.am    1  ZINC000416583757   -1.1300
     13 C13        -3.8505    2.4873   51.1460 C.3     1  ZINC000416583757    0.1600
     14 C14        -5.3499    2.3397   51.1176 C.ar    1  ZINC000416583757   -0.0800
     15 C15        -5.9369    1.1673   51.5545 C.ar    1  ZINC000416583757   -0.0800
     16 C16        -7.3138    1.0315   51.5291 C.ar    1  ZINC000416583757   -0.0300
     17 Cl17       -8.0512   -0.4409   52.0786 Cl      1  ZINC000416583757   -0.0500
     18 C18        -8.1023    2.0693   51.0663 C.ar    1  ZINC000416583757   -0.0700
     19 C19        -7.5141    3.2424   50.6292 C.ar    1  ZINC000416583757   -0.0800
     20 Br20       -8.5915    4.6618   49.9963 Br      1  ZINC000416583757   -0.0300
     21 C21        -6.1381    3.3791   50.6599 C.ar    1  ZINC000416583757   -0.0700
     22 H22        -2.9231    1.3691   57.2964 H       1  ZINC000416583757    0.0700
     23 H23        -1.6433    2.3243   56.5103 H       1  ZINC000416583757    0.0800
     24 H24        -2.6950    3.0799   57.7315 H       1  ZINC000416583757    0.0700
     25 H25        -4.2618    4.6390   54.9591 H       1  ZINC000416583757    0.0900
     26 H26        -3.0863    4.7956   56.2865 H       1  ZINC000416583757    0.1000
     27 H27        -0.4922    3.3024   55.0231 H       1  ZINC000416583757    0.0700
     28 H28        -0.2770    4.8436   54.1589 H       1  ZINC000416583757    0.0800
     29 H29        -0.8382    4.8412   55.8481 H       1  ZINC000416583757    0.0800
     30 H30        -3.6065    2.1879   53.2337 H       1  ZINC000416583757    0.4200
     31 H31        -3.5518    3.2916   50.4736 H       1  ZINC000416583757    0.0800
     32 H32        -3.3873    1.5544   50.8246 H       1  ZINC000416583757    0.1000
     33 H33        -5.3210    0.3570   51.9155 H       1  ZINC000416583757    0.1500
     34 H34        -9.1770    1.9637   51.0460 H       1  ZINC000416583757    0.1500
     35 H35        -5.6788    4.2951   50.3185 H       1  ZINC000416583757    0.1400
@<TRIPOS>BOND
     1     1     2    1
     2     1    22    1
     3     1    23    1
     4     1    24    1
     5     2     3    1
     6     2     4    1
     7     2     6    1
     8     4     5    3
     9     6     7    1
    10     6    25    1
    11     6    26    1
    12     7     8    1
    13     7     9   am
    14     8    27    1
    15     8    28    1
    16     8    29    1
    17     9    10    2
    18     9    11    2
    19     9    12   am
    20    12    13    1
    21    12    30    1
    22    13    14    1
    23    13    31    1
    24    13    32    1
    25    14    21   ar
    26    14    15   ar
    27    15    16   ar
    28    15    33    1
    29    16    17    1
    30    16    18   ar
    31    18    19   ar
    32    18    34    1
    33    19    20    1
    34    19    21   ar
    35    21    35    1
@<TRIPOS>SUBSTRUCTURE
     1 ZINC000416583757        1 TEMP              0 ****  ****    0 ROOT


##########                                Name:    ZINC000809503567
##########                DOCK_Rotatable_Bonds:                   9
##########                         Heavy_Atoms:                  26
##########                    Molecular_Weight:             353.378
##########                DOCK_Rotatable_Bonds:                   9
##########                       Formal_Charge:          -0.0200002
##########                     HBond_Acceptors:                   7
##########                        HBond_Donors:                   1
##########                         Heavy_Atoms:                  26
##########                          Grid_Score:          -28.682049
##########                     Grid_vdw_energy:          -28.456507
##########                      Grid_es_energy:           -0.225543
##########           Internal_energy_repulsive:            9.367455

@<TRIPOS>MOLECULE
ZINC000809503567
 45 46 1 0 0
SMALL
USER_CHARGES


@<TRIPOS>ATOM
      1 C1         -4.1082    2.4570   49.7443 C.3     1  ZINC000809503567    0.0200
      2 O2         -4.8726    2.9710   50.8368 O.3     1  ZINC000809503567   -0.3100
      3 C3         -5.9916    2.2853   51.1823 C.ar    1  ZINC000809503567    0.1900
      4 C4         -5.9077    0.9465   51.5311 C.ar    1  ZINC000809503567   -0.2100
      5 C5         -7.0475    0.2495   51.8825 C.ar    1  ZINC000809503567   -0.0200
      6 C6         -8.2803    0.8802   51.8888 C.ar    1  ZINC000809503567   -0.1500
      7 C7         -9.5159    0.1081   52.2737 C.3     1  ZINC000809503567    0.1700
      8 N8         -9.7046    0.1803   53.7247 N.am    1  ZINC000809503567   -0.7000
      9 C9        -10.8591    0.6570   54.2312 C.2     1  ZINC000809503567    0.5100
     10 O10       -11.7416    1.0277   53.4854 O.2     1  ZINC000809503567   -0.4900
     11 C11       -11.0523    0.7289   55.7114 C.2     1  ZINC000809503567    0.5100
     12 O12       -11.5693   -0.1969   56.3015 O.2     1  ZINC000809503567   -0.5000
     13 N13       -10.6523    1.8219   56.3908 N.am    1  ZINC000809503567   -0.4600
     14 C14       -10.0265    2.9388   55.6787 C.3     1  ZINC000809503567    0.0800
     15 O15       -10.8369    1.8907   57.7931 O.3     1  ZINC000809503567   -0.1100
     16 C16        -9.6591    1.6024   58.5492 C.3     1  ZINC000809503567    0.0800
     17 C17        -9.8637    0.3314   59.3327 C.ar    1  ZINC000809503567   -0.0900
     18 C18       -11.1139    0.0233   59.8356 C.ar    1  ZINC000809503567   -0.1000
     19 C19       -11.3016   -1.1427   60.5543 C.ar    1  ZINC000809503567   -0.1300
     20 C20       -10.2393   -2.0006   60.7696 C.ar    1  ZINC000809503567   -0.1100
     21 C21        -8.9892   -1.6927   60.2659 C.ar    1  ZINC000809503567   -0.1300
     22 C22        -8.8025   -0.5290   59.5435 C.ar    1  ZINC000809503567   -0.0800
     23 C23        -8.3822    2.2114   51.5451 C.ar    1  ZINC000809503567   -0.0100
     24 C24        -7.2368    2.9294   51.1934 C.ar    1  ZINC000809503567   -0.0600
     25 C25        -7.3355    4.3123   50.8353 C.1     1  ZINC000809503567    0.2600
     26 N26        -7.4137    5.4095   50.5512 N.1     1  ZINC000809503567   -0.4100
     27 H27        -4.7265    2.4345   48.8469 H       1  ZINC000809503567    0.0600
     28 H28        -3.2428    3.0975   49.5732 H       1  ZINC000809503567    0.1100
     29 H29        -3.7720    1.4472   49.9794 H       1  ZINC000809503567    0.0600
     30 H30        -4.9500    0.4473   51.5279 H       1  ZINC000809503567    0.1400
     31 H31        -6.9768   -0.7936   52.1535 H       1  ZINC000809503567    0.1400
     32 H32       -10.3835    0.5375   51.7727 H       1  ZINC000809503567    0.0900
     33 H33        -9.4016   -0.9335   51.9735 H       1  ZINC000809503567    0.0900
     34 H34        -8.9988   -0.1150   54.3209 H       1  ZINC000809503567    0.4100
     35 H35       -10.7951    3.6426   55.3596 H       1  ZINC000809503567    0.0800
     36 H36        -9.3238    3.4441   56.3413 H       1  ZINC000809503567    0.0800
     37 H37        -9.4948    2.5608   54.8055 H       1  ZINC000809503567    0.0900
     38 H38        -8.8136    1.4798   57.8721 H       1  ZINC000809503567    0.0700
     39 H39        -9.4580    2.4243   59.2363 H       1  ZINC000809503567    0.0600
     40 H40       -11.9438    0.6934   59.6674 H       1  ZINC000809503567    0.1200
     41 H41       -12.2782   -1.3831   60.9478 H       1  ZINC000809503567    0.1200
     42 H42       -10.3857   -2.9110   61.3316 H       1  ZINC000809503567    0.1200
     43 H43        -8.1592   -2.3628   60.4344 H       1  ZINC000809503567    0.1200
     44 H44        -7.8259   -0.2885   59.1500 H       1  ZINC000809503567    0.1300
     45 H45        -9.3456    2.6994   51.5514 H       1  ZINC000809503567    0.1400
@<TRIPOS>BOND
     1     1     2    1
     2     1    27    1
     3     1    28    1
     4     1    29    1
     5     2     3    1
     6     3    24   ar
     7     3     4   ar
     8     4     5   ar
     9     4    30    1
    10     5     6   ar
    11     5    31    1
    12     6     7    1
    13     6    23   ar
    14     7     8    1
    15     7    32    1
    16     7    33    1
    17     8     9   am
    18     8    34    1
    19     9    10    2
    20     9    11    1
    21    11    12    2
    22    11    13   am
    23    13    14    1
    24    13    15    1
    25    14    35    1
    26    14    36    1
    27    14    37    1
    28    15    16    1
    29    16    17    1
    30    16    38    1
    31    16    39    1
    32    17    22   ar
    33    17    18   ar
    34    18    19   ar
    35    18    40    1
    36    19    20   ar
    37    19    41    1
    38    20    21   ar
    39    20    42    1
    40    21    22   ar
    41    21    43    1
    42    22    44    1
    43    23    24   ar
    44    23    45    1
    45    24    25    1
    46    25    26    3
@<TRIPOS>SUBSTRUCTURE
     1 ZINC000809503567        1 TEMP              0 ****  ****    0 ROOT


##########                                Name:    ZINC000012087388
##########                DOCK_Rotatable_Bonds:                   5
##########                         Heavy_Atoms:                  29
##########                    Molecular_Weight:              418.52
##########                DOCK_Rotatable_Bonds:                   5
##########                       Formal_Charge:          -0.0499999
##########                     HBond_Acceptors:                  10
##########                        HBond_Donors:                   1
##########                         Heavy_Atoms:                  29
##########                          Grid_Score:          -28.674238
##########                     Grid_vdw_energy:          -26.221872
##########                      Grid_es_energy:           -2.452366
##########           Internal_energy_repulsive:           26.467131

@<TRIPOS>MOLECULE
ZINC000012087388
 55 58 1 0 0
SMALL
USER_CHARGES


@<TRIPOS>ATOM
      1 C1        -12.8480   -3.2430   55.3504 C.3     1  <0>        -0.6600
      2 S2        -12.3411   -2.5161   56.9332 S.o2    1  <0>         2.5100
      3 O3        -13.4717   -2.0309   57.6439 O.2     1  <0>        -0.9400
      4 O4        -11.3716   -3.3364   57.5708 O.2     1  <0>        -0.9300
      5 C5        -11.4527   -1.0621   56.4848 C.ar    1  <0>        -0.8400
      6 C6        -11.3639   -0.6672   55.1594 C.ar    1  <0>         0.3000
      7 N7        -10.6896    0.4299   54.8567 N.ar    1  <0>        -0.5800
      8 C8        -10.1037    1.1477   55.8036 C.ar    1  <0>         0.6000
      9 N9         -9.4063    2.2901   55.4513 N.pl3   1  <0>        -0.5700
     10 C10        -8.8529    3.1774   56.4834 C.3     1  <0>         0.1200
     11 C11        -7.3600    3.3828   56.2083 C.3     1  <0>        -0.1400
     12 C12        -7.1742    3.8911   54.7769 C.3     1  <0>        -0.1200
     13 C13        -7.7084    2.8499   53.7906 C.3     1  <0>        -0.1400
     14 C14        -9.2001    2.6354   54.0382 C.3     1  <0>         0.1200
     15 N15       -10.1698    0.7980   57.0799 N.ar    1  <0>        -0.5700
     16 C16       -10.8323   -0.2851   57.4508 C.ar    1  <0>         0.3200
     17 C17       -10.9026   -0.6756   58.9045 C.3     1  <0>        -0.0700
     18 C18        -9.5768   -1.3136   59.3258 C.3     1  <0>        -0.1300
     19 C19        -9.6642   -1.7406   60.7944 C.3     1  <0>         0.0900
     20 N20       -10.0581   -0.5784   61.6022 N.am    1  <0>        -0.6100
     21 C21        -9.3219   -0.2000   62.6658 C.2     1  <0>         0.5900
     22 O22        -8.3208   -0.8227   62.9650 O.2     1  <0>        -0.5100
     23 C23        -9.7293    0.9664   63.4653 C.2     1  <0>        -0.0400
     24 C24       -10.8593    1.0773   64.2567 C.2     1  <0>        -0.1500
     25 C25       -10.8025    2.3606   64.8051 C.2     1  <0>         0.0000
     26 N26        -9.7176    2.9402   64.3584 N.2     1  <0>        -0.2700
     27 N27        -9.0651    2.1545   63.5796 N.pl3   1  <0>        -0.3900
     28 C28       -11.2698    0.1639   61.2283 C.3     1  <0>         0.1100
     29 C29       -11.1644    0.5696   59.7549 C.3     1  <0>        -0.1200
     30 H30       -13.4746   -2.5341   54.8091 H       1  <0>         0.1400
     31 H31       -11.9636   -3.4734   54.7565 H       1  <0>         0.1300
     32 H32       -13.4106   -4.1583   55.5345 H       1  <0>         0.1400
     33 H33       -11.8392   -1.2483   54.3830 H       1  <0>         0.1900
     34 H34        -9.3658    4.1388   56.4521 H       1  <0>         0.0700
     35 H35        -8.9845    2.7226   57.4651 H       1  <0>         0.1000
     36 H36        -6.9581    4.1144   56.9093 H       1  <0>         0.0800
     37 H37        -6.8342    2.4355   56.3291 H       1  <0>         0.0700
     38 H38        -7.7206    4.8257   54.6497 H       1  <0>         0.0700
     39 H39        -6.1145    4.0615   54.5866 H       1  <0>         0.0700
     40 H40        -7.5546    3.2024   52.7707 H       1  <0>         0.0800
     41 H41        -7.1794    1.9078   53.9342 H       1  <0>         0.0700
     42 H42        -9.5626    1.8249   53.4059 H       1  <0>         0.1000
     43 H43        -9.7440    3.5518   53.8088 H       1  <0>         0.0700
     44 H44       -11.7120   -1.3912   59.0496 H       1  <0>         0.1000
     45 H45        -9.3796   -2.1870   58.7041 H       1  <0>         0.0800
     46 H46        -8.7704   -0.5904   59.2046 H       1  <0>         0.0900
     47 H47       -10.4086   -2.5296   60.9019 H       1  <0>         0.0800
     48 H48        -8.6923   -2.1047   61.1275 H       1  <0>         0.0900
     49 H49       -11.6227    0.3302   64.4164 H       1  <0>         0.1700
     50 H50       -11.5258    2.7972   65.4780 H       1  <0>         0.1900
     51 H51        -8.2314    2.3738   63.1349 H       1  <0>         0.4400
     52 H52       -12.1451   -0.4697   61.3712 H       1  <0>         0.0800
     53 H53       -11.3572    1.0565   61.8478 H       1  <0>         0.1000
     54 H54       -10.3431    1.2750   59.6296 H       1  <0>         0.0800
     55 H55       -12.0972    1.0366   59.4386 H       1  <0>         0.0900
@<TRIPOS>BOND
     1     1     2    1
     2     1    30    1
     3     1    31    1
     4     1    32    1
     5     2     3    2
     6     2     4    2
     7     2     5    1
     8     5    16   ar
     9     5     6   ar
    10     6     7   ar
    11     6    33    1
    12     7     8   ar
    13     8     9    1
    14     8    15   ar
    15     9    14    1
    16     9    10    1
    17    10    11    1
    18    10    34    1
    19    10    35    1
    20    11    12    1
    21    11    36    1
    22    11    37    1
    23    12    13    1
    24    12    38    1
    25    12    39    1
    26    13    14    1
    27    13    40    1
    28    13    41    1
    29    14    42    1
    30    14    43    1
    31    15    16   ar
    32    16    17    1
    33    17    29    1
    34    17    18    1
    35    17    44    1
    36    18    19    1
    37    18    45    1
    38    18    46    1
    39    19    20    1
    40    19    47    1
    41    19    48    1
    42    20    21   am
    43    20    28    1
    44    21    22    2
    45    21    23    1
    46    23    27    1
    47    23    24    2
    48    24    25    1
    49    24    49    1
    50    25    26    2
    51    25    50    1
    52    26    27    1
    53    27    51    1
    54    28    29    1
    55    28    52    1
    56    28    53    1
    57    29    54    1
    58    29    55    1
@<TRIPOS>SUBSTRUCTURE
     1 <0>         1 TEMP              0 ****  ****    0 ROOT


##########                                Name:    ZINC000443933644
##########                DOCK_Rotatable_Bonds:                   8
##########                         Heavy_Atoms:                  27
##########                    Molecular_Weight:             402.438
##########                DOCK_Rotatable_Bonds:                   8
##########                       Formal_Charge:          0.00999922
##########                     HBond_Acceptors:                   9
##########                        HBond_Donors:                   2
##########                         Heavy_Atoms:                  27
##########                          Grid_Score:          -28.666920
##########                     Grid_vdw_energy:          -23.505943
##########                      Grid_es_energy:           -5.160976
##########           Internal_energy_repulsive:           31.122818

@<TRIPOS>MOLECULE
ZINC000443933644
 48 49 1 0 0
SMALL
USER_CHARGES


@<TRIPOS>ATOM
      1 C1        -13.3465   -0.6980   54.4564 C.3     1  ZINC000443933644   -0.1500
      2 C2        -13.0567   -0.4041   55.9297 C.3     1  ZINC000443933644   -0.1400
      3 C3        -11.6580   -0.9118   56.2855 C.3     1  ZINC000443933644   -0.1000
      4 H4        -10.9276   -0.4692   55.6083 H       1  ZINC000443933644    0.1000
      5 C5        -11.6194   -2.4355   56.1522 C.3     1  ZINC000443933644   -0.1700
      6 C6        -11.3232   -0.5172   57.7253 C.3     1  ZINC000443933644    0.1200
      7 H7        -10.3597   -0.9438   58.0043 H       1  ZINC000443933644    0.1300
      8 N8        -12.3614   -1.0259   58.6251 N.am    1  ZINC000443933644   -1.1100
      9 S9        -11.9452   -1.9732   59.9180 S.o2    1  ZINC000443933644    2.6900
     10 O10       -13.1352   -2.1729   60.6686 O.2     1  ZINC000443933644   -0.9400
     11 O11       -11.1656   -3.0414   59.3983 O.2     1  ZINC000443933644   -0.9400
     12 C12       -10.8682   -1.0211   60.9370 C.ar    1  ZINC000443933644   -0.7000
     13 C13       -11.3285    0.1672   61.5288 C.ar    1  ZINC000443933644    0.0500
     14 C14       -12.6437    0.6201   61.3255 C.ar    1  ZINC000443933644   -0.1400
     15 C15       -13.0569    1.7755   61.9143 C.ar    1  ZINC000443933644   -0.0800
     16 C16       -12.1948    2.5191   62.7178 C.ar    1  ZINC000443933644   -0.1200
     17 C17       -10.9143    2.1110   62.9365 C.ar    1  ZINC000443933644   -0.0900
     18 C18       -10.4529    0.9240   62.3460 C.ar    1  ZINC000443933644   -0.0900
     19 C19        -9.1327    0.4698   62.5500 C.ar    1  ZINC000443933644    0.2300
     20 N20        -8.2526    1.1998   63.3510 N.am    1  ZINC000443933644   -0.6700
     21 C21        -8.0026    0.8014   64.6140 C.2     1  ZINC000443933644    0.5100
     22 C22        -7.0526    1.5894   65.4787 C.3     1  ZINC000443933644   -0.1700
     23 O23        -8.5423   -0.1913   65.0548 O.2     1  ZINC000443933644   -0.5100
     24 C24        -8.7199   -0.7010   61.9515 C.ar    1  ZINC000443933644   -0.1600
     25 C25        -9.5910   -1.4392   61.1561 C.ar    1  ZINC000443933644    0.0400
     26 C26       -11.2565    1.0075   57.8338 C.3     1  ZINC000443933644    0.4300
     27 F27       -10.7850    1.5407   56.6294 F       1  ZINC000443933644   -0.1700
     28 F28       -12.5339    1.5125   58.0990 F       1  ZINC000443933644   -0.1600
     29 F29       -10.3895    1.3635   58.8724 F       1  ZINC000443933644   -0.1700
     30 H30       -12.6076   -0.1942   53.8333 H       1  ZINC000443933644    0.0500
     31 H31       -13.2953   -1.7730   54.2835 H       1  ZINC000443933644    0.0600
     32 H32       -14.3430   -0.3363   54.2029 H       1  ZINC000443933644    0.0600
     33 H33       -13.1079    0.6709   56.1026 H       1  ZINC000443933644    0.0700
     34 H34       -13.7956   -0.9079   56.5528 H       1  ZINC000443933644    0.0900
     35 H35       -11.7420   -2.7119   55.1049 H       1  ZINC000443933644    0.0700
     36 H36       -10.6620   -2.8080   56.5166 H       1  ZINC000443933644    0.0600
     37 H37       -12.4267   -2.8722   56.7401 H       1  ZINC000443933644    0.0700
     38 H38       -13.2927   -0.8077   58.4635 H       1  ZINC000443933644    0.4300
     39 H39       -13.3228    0.0543   60.7048 H       1  ZINC000443933644    0.1400
     40 H40       -14.0677    2.1213   61.7561 H       1  ZINC000443933644    0.1300
     41 H41       -12.5474    3.4325   63.1736 H       1  ZINC000443933644    0.1300
     42 H42       -10.2570    2.6977   63.5610 H       1  ZINC000443933644    0.1300
     43 H43        -7.8211    1.9939   62.9985 H       1  ZINC000443933644    0.4200
     44 H44        -6.6697    2.4404   64.9155 H       1  ZINC000443933644    0.0800
     45 H45        -7.5784    1.9466   66.3642 H       1  ZINC000443933644    0.1000
     46 H46        -6.2227    0.9511   65.7817 H       1  ZINC000443933644    0.1000
     47 H47        -7.7101   -1.0519   62.1052 H       1  ZINC000443933644    0.1500
     48 H48        -9.2455   -2.3538   60.6972 H       1  ZINC000443933644    0.1500
@<TRIPOS>BOND
     1     1     2    1
     2     1    30    1
     3     1    31    1
     4     1    32    1
     5     2     3    1
     6     2    33    1
     7     2    34    1
     8     3     4    1
     9     3     5    1
    10     3     6    1
    11     5    35    1
    12     5    36    1
    13     5    37    1
    14     6     7    1
    15     6     8    1
    16     6    26    1
    17     8     9   am
    18     8    38    1
    19     9    10    2
    20     9    11    2
    21     9    12    1
    22    12    25   ar
    23    12    13   ar
    24    13    18   ar
    25    13    14   ar
    26    14    15   ar
    27    14    39    1
    28    15    16   ar
    29    15    40    1
    30    16    17   ar
    31    16    41    1
    32    17    18   ar
    33    17    42    1
    34    18    19   ar
    35    19    20    1
    36    19    24   ar
    37    20    21   am
    38    20    43    1
    39    21    22    1
    40    21    23    2
    41    22    44    1
    42    22    45    1
    43    22    46    1
    44    24    25   ar
    45    24    47    1
    46    25    48    1
    47    26    27    1
    48    26    28    1
    49    26    29    1
@<TRIPOS>SUBSTRUCTURE
     1 ZINC000443933644        1 TEMP              0 ****  ****    0 ROOT


##########                                Name:    ZINC000469435497
##########                DOCK_Rotatable_Bonds:                   6
##########                         Heavy_Atoms:                  27
##########                    Molecular_Weight:             364.444
##########                DOCK_Rotatable_Bonds:                   6
##########                       Formal_Charge:           0.0300001
##########                     HBond_Acceptors:                   5
##########                        HBond_Donors:                   2
##########                         Heavy_Atoms:                  27
##########                          Grid_Score:          -28.655416
##########                     Grid_vdw_energy:          -28.839752
##########                      Grid_es_energy:            0.184336
##########           Internal_energy_repulsive:            4.742635

@<TRIPOS>MOLECULE
ZINC000469435497
 51 54 1 0 0
SMALL
USER_CHARGES


@<TRIPOS>ATOM
      1 C1        -13.8722   -1.3546   55.1331 C.3     1  ZINC000469435497   -0.1600
      2 C2        -12.4908   -1.9759   55.3486 C.3     1  ZINC000469435497    0.1000
      3 C3        -12.6014   -3.2720   56.1542 C.3     1  ZINC000469435497   -0.1400
      4 C4        -11.7851   -2.2259   53.9949 C.3     1  ZINC000469435497   -0.1000
      5 C5        -10.9812   -0.9519   53.8203 C.ar    1  ZINC000469435497   -0.1500
      6 C6        -10.3524   -0.3999   52.7272 C.ar    1  ZINC000469435497   -0.0700
      7 C7         -9.6788    0.8092   52.8521 C.ar    1  ZINC000469435497    0.1100
      8 N8         -9.0372    1.3762   51.7431 N.am    1  ZINC000469435497   -0.6600
      9 C9         -7.8152    0.9418   51.3767 C.2     1  ZINC000469435497    0.5100
     10 O10        -7.2708    0.0600   52.0070 O.2     1  ZINC000469435497   -0.5200
     11 C11        -7.1250    1.5516   50.1839 C.3     1  ZINC000469435497    0.1000
     12 N12        -5.7722    1.9672   50.5621 N.am    1  ZINC000469435497   -0.7200
     13 C13        -5.5554    3.2135   51.0272 C.2     1  ZINC000469435497    0.5700
     14 O14        -6.4821    3.9931   51.1314 O.2     1  ZINC000469435497   -0.5300
     15 C15        -4.1903    3.6324   51.4106 C.ar    1  ZINC000469435497   -0.1400
     16 C16        -3.9752    4.8894   51.9771 C.ar    1  ZINC000469435497   -0.0800
     17 C17        -2.6990    5.2715   52.3316 C.ar    1  ZINC000469435497   -0.1100
     18 C18        -1.6282    4.4149   52.1287 C.ar    1  ZINC000469435497   -0.0700
     19 C19        -0.1559    4.6018   52.4289 C.3     1  ZINC000469435497   -0.0900
     20 C20         0.4462    3.1811   52.3994 C.3     1  ZINC000469435497   -0.1200
     21 C21        -0.5160    2.4325   51.4530 C.3     1  ZINC000469435497   -0.0800
     22 C22        -1.8351    3.1668   51.5671 C.ar    1  ZINC000469435497   -0.1100
     23 C23        -3.1110    2.7712   51.2134 C.ar    1  ZINC000469435497   -0.0400
     24 C24        -9.6456    1.4520   54.0821 C.ar    1  ZINC000469435497   -0.1000
     25 C25       -10.2734    0.8938   55.1757 C.ar    1  ZINC000469435497   -0.1200
     26 C26       -10.9471   -0.3191   55.0566 C.ar    1  ZINC000469435497    0.1000
     27 O27       -11.6097   -1.0450   55.9999 O.3     1  ZINC000469435497   -0.3000
     28 H28       -13.7744   -0.4508   54.5317 H       1  ZINC000469435497    0.0600
     29 H29       -14.5145   -2.0673   54.6158 H       1  ZINC000469435497    0.0800
     30 H30       -14.3121   -1.1031   56.0982 H       1  ZINC000469435497    0.0700
     31 H31       -13.2172   -3.9873   55.6089 H       1  ZINC000469435497    0.0800
     32 H32       -11.6068   -3.6909   56.3068 H       1  ZINC000469435497    0.0700
     33 H33       -13.0591   -3.0611   57.1207 H       1  ZINC000469435497    0.0700
     34 H34       -11.1300   -3.0952   54.0518 H       1  ZINC000469435497    0.0900
     35 H35       -12.5129   -2.3404   53.1916 H       1  ZINC000469435497    0.0900
     36 H36       -10.3822   -0.9061   51.7736 H       1  ZINC000469435497    0.1400
     37 H37        -9.4726    2.0813   51.2390 H       1  ZINC000469435497    0.4200
     38 H38        -7.0682    0.8159   49.3817 H       1  ZINC000469435497    0.1100
     39 H39        -7.6894    2.4192   49.8419 H       1  ZINC000469435497    0.1100
     40 H40        -5.0324    1.3455   50.4779 H       1  ZINC000469435497    0.4100
     41 H41        -4.8059    5.5609   52.1373 H       1  ZINC000469435497    0.1300
     42 H42        -2.5324    6.2445   52.7698 H       1  ZINC000469435497    0.1300
     43 H43         0.3095    5.2258   51.6659 H       1  ZINC000469435497    0.0900
     44 H44        -0.0246    5.0477   53.4149 H       1  ZINC000469435497    0.0800
     45 H45         1.4568    3.1971   51.9911 H       1  ZINC000469435497    0.0800
     46 H46         0.4362    2.7354   53.3940 H       1  ZINC000469435497    0.0700
     47 H47        -0.1472    2.4743   50.4283 H       1  ZINC000469435497    0.0800
     48 H48        -0.6309    1.3968   51.7725 H       1  ZINC000469435497    0.0800
     49 H49        -3.2723    1.7949   50.7804 H       1  ZINC000469435497    0.1400
     50 H50        -9.1255    2.3932   54.1830 H       1  ZINC000469435497    0.1400
     51 H51       -10.2427    1.3998   56.1293 H       1  ZINC000469435497    0.1300
@<TRIPOS>BOND
     1     1     2    1
     2     1    28    1
     3     1    29    1
     4     1    30    1
     5     2    27    1
     6     2     3    1
     7     2     4    1
     8     3    31    1
     9     3    32    1
    10     3    33    1
    11     4     5    1
    12     4    34    1
    13     4    35    1
    14     5    26   ar
    15     5     6   ar
    16     6     7   ar
    17     6    36    1
    18     7     8    1
    19     7    24   ar
    20     8     9   am
    21     8    37    1
    22     9    10    2
    23     9    11    1
    24    11    12    1
    25    11    38    1
    26    11    39    1
    27    12    13   am
    28    12    40    1
    29    13    14    2
    30    13    15    1
    31    15    23   ar
    32    15    16   ar
    33    16    17   ar
    34    16    41    1
    35    17    18   ar
    36    17    42    1
    37    18    22   ar
    38    18    19    1
    39    19    20    1
    40    19    43    1
    41    19    44    1
    42    20    21    1
    43    20    45    1
    44    20    46    1
    45    21    22    1
    46    21    47    1
    47    21    48    1
    48    22    23   ar
    49    23    49    1
    50    24    25   ar
    51    24    50    1
    52    25    26   ar
    53    25    51    1
    54    26    27    1
@<TRIPOS>SUBSTRUCTURE
     1 ZINC000469435497        1 TEMP              0 ****  ****    0 ROOT


##########                                Name:    ZINC000753658424
##########                DOCK_Rotatable_Bonds:                   8
##########                         Heavy_Atoms:                  24
##########                    Molecular_Weight:             332.399
##########                DOCK_Rotatable_Bonds:                   8
##########                       Formal_Charge:        -9.16421e-07
##########                     HBond_Acceptors:                   6
##########                        HBond_Donors:                   3
##########                         Heavy_Atoms:                  24
##########                          Grid_Score:          -28.649313
##########                     Grid_vdw_energy:          -27.665537
##########                      Grid_es_energy:           -0.983776
##########           Internal_energy_repulsive:           17.108429

@<TRIPOS>MOLECULE
ZINC000753658424
 48 49 1 0 0
SMALL
USER_CHARGES


@<TRIPOS>ATOM
      1 C1         -9.5401    0.2392   61.6540 C.3     1  ZINC000753658424   -0.2000
      2 C2         -9.1810   -0.3960   60.3354 C.2     1  ZINC000753658424    0.4400
      3 O3         -8.3569   -1.2854   60.2950 O.2     1  ZINC000753658424   -0.4500
      4 C4         -9.8276    0.0608   59.1014 C.2     1  ZINC000753658424   -0.2500
      5 C5         -9.5232    1.2091   58.3870 C.2     1  ZINC000753658424    0.1000
      6 C6         -8.4604    2.2155   58.7459 C.3     1  ZINC000753658424   -0.1000
      7 N7        -10.3354    1.2713   57.3217 N.pl3   1  ZINC000753658424   -0.5300
      8 C8        -11.1737    0.1772   57.3234 C.2     1  ZINC000753658424   -0.0600
      9 C9        -12.2067   -0.1151   56.3214 C.2     1  ZINC000753658424    0.5900
     10 O10       -13.3244    0.3491   56.4468 O.2     1  ZINC000753658424   -0.5200
     11 N11       -11.9168   -0.8975   55.2631 N.am    1  ZINC000753658424   -0.7300
     12 C12       -12.9478   -1.1904   54.2644 C.3     1  ZINC000753658424    0.0900
     13 C13       -12.2833   -1.5079   52.9233 C.3     1  ZINC000753658424    0.1900
     14 H14       -13.0327   -1.4863   52.1322 H       1  ZINC000753658424    0.1300
     15 O15       -11.6895   -2.8064   52.9816 O.3     1  ZINC000753658424   -0.5500
     16 C16       -11.2185   -0.4812   52.6347 C.2     1  ZINC000753658424   -0.0600
     17 C17       -11.4177    0.7179   52.0586 C.2     1  ZINC000753658424   -0.1800
     18 C18       -10.1553    1.3499   51.9816 C.2     1  ZINC000753658424   -0.2100
     19 C19        -9.2604    0.4993   52.5154 C.2     1  ZINC000753658424    0.0000
     20 C20        -7.7799    0.7472   52.6494 C.3     1  ZINC000753658424   -0.0800
     21 O21        -9.9109   -0.6057   52.9146 O.3     1  ZINC000753658424   -0.1700
     22 C22       -10.8771   -0.5902   58.4094 C.2     1  ZINC000753658424   -0.0100
     23 C23       -11.5456   -1.8817   58.8043 C.3     1  ZINC000753658424   -0.0500
     24 C24       -10.5451   -3.0326   58.6803 C.3     1  ZINC000753658424   -0.1500
     25 C25       -12.0321   -1.7826   60.2515 C.3     1  ZINC000753658424   -0.1500
     26 H26        -9.0220   -0.2799   62.4604 H       1  ZINC000753658424    0.0800
     27 H27        -9.2412    1.2873   61.6457 H       1  ZINC000753658424    0.1000
     28 H28       -10.6166    0.1695   61.8097 H       1  ZINC000753658424    0.0900
     29 H29        -7.5414    1.9805   58.2093 H       1  ZINC000753658424    0.0900
     30 H30        -8.7977    3.2144   58.4688 H       1  ZINC000753658424    0.0800
     31 H31        -8.2738    2.1798   59.8192 H       1  ZINC000753658424    0.0900
     32 H32       -10.3334    1.9757   56.6548 H       1  ZINC000753658424    0.4200
     33 H33       -11.0254   -1.2667   55.1626 H       1  ZINC000753658424    0.4000
     34 H34       -13.5361   -2.0482   54.5904 H       1  ZINC000753658424    0.0900
     35 H35       -13.6001   -0.3247   54.1507 H       1  ZINC000753658424    0.0800
     36 H36       -12.3258   -3.5250   53.0991 H       1  ZINC000753658424    0.3900
     37 H37       -12.3607    1.1203   51.7193 H       1  ZINC000753658424    0.1500
     38 H38        -9.9491    2.3279   51.5725 H       1  ZINC000753658424    0.1500
     39 H39        -7.5770    1.2259   53.6074 H       1  ZINC000753658424    0.0800
     40 H40        -7.2464   -0.2018   52.5971 H       1  ZINC000753658424    0.0800
     41 H41        -7.4457    1.3970   51.8406 H       1  ZINC000753658424    0.0900
     42 H42       -12.3953   -2.0667   58.1472 H       1  ZINC000753658424    0.1100
     43 H43        -9.7560   -2.9095   59.4221 H       1  ZINC000753658424    0.0500
     44 H44       -11.0578   -3.9795   58.8489 H       1  ZINC000753658424    0.0600
     45 H45       -10.1087   -3.0286   57.6814 H       1  ZINC000753658424    0.0600
     46 H46       -12.8032   -1.0155   60.3238 H       1  ZINC000753658424    0.0500
     47 H47       -12.4442   -2.7424   60.5628 H       1  ZINC000753658424    0.0600
     48 H48       -11.1957   -1.5190   60.8987 H       1  ZINC000753658424    0.0600
@<TRIPOS>BOND
     1     1     2    1
     2     1    26    1
     3     1    27    1
     4     1    28    1
     5     2     3    2
     6     2     4    1
     7     4    22    1
     8     4     5    2
     9     5     6    1
    10     5     7    1
    11     6    29    1
    12     6    30    1
    13     6    31    1
    14     7     8    1
    15     7    32    1
    16     8     9    1
    17     8    22    2
    18     9    10    2
    19     9    11   am
    20    11    12    1
    21    11    33    1
    22    12    13    1
    23    12    34    1
    24    12    35    1
    25    13    14    1
    26    13    15    1
    27    13    16    1
    28    15    36    1
    29    16    21    1
    30    16    17    2
    31    17    18    1
    32    17    37    1
    33    18    19    2
    34    18    38    1
    35    19    20    1
    36    19    21    1
    37    20    39    1
    38    20    40    1
    39    20    41    1
    40    22    23    1
    41    23    24    1
    42    23    25    1
    43    23    42    1
    44    24    43    1
    45    24    44    1
    46    24    45    1
    47    25    46    1
    48    25    47    1
    49    25    48    1
@<TRIPOS>SUBSTRUCTURE
     1 ZINC000753658424        1 TEMP              0 ****  ****    0 ROOT


##########                                Name:    ZINC000550011575
##########                DOCK_Rotatable_Bonds:                   6
##########                         Heavy_Atoms:                  28
##########                    Molecular_Weight:             423.935
##########                DOCK_Rotatable_Bonds:                   6
##########                       Formal_Charge:          -0.0100002
##########                     HBond_Acceptors:                   7
##########                        HBond_Donors:                   0
##########                         Heavy_Atoms:                  28
##########                          Grid_Score:          -28.636866
##########                     Grid_vdw_energy:          -27.828711
##########                      Grid_es_energy:           -0.808155
##########           Internal_energy_repulsive:           41.151237

@<TRIPOS>MOLECULE
ZINC000550011575
 51 53 1 0 0
SMALL
USER_CHARGES


@<TRIPOS>ATOM
      1 C1         -9.3852   -0.4934   52.2774 C.3     1  ZINC000550011575   -0.1400
      2 C2         -8.7903    0.7527   52.9363 C.3     1  ZINC000550011575   -0.6100
      3 H3         -7.8533    0.4915   53.4281 H       1  ZINC000550011575    0.1500
      4 C4         -8.5308    1.8013   51.8854 C.2     1  ZINC000550011575    0.5400
      5 O5         -9.2989    2.7305   51.7532 O.2     1  ZINC000550011575   -0.5100
      6 N6         -7.4452    1.7063   51.0924 N.am    1  ZINC000550011575   -0.6000
      7 C7         -6.5183    0.5828   51.2508 C.3     1  ZINC000550011575    0.0600
      8 C8         -7.1920    2.7265   50.0720 C.3     1  ZINC000550011575    0.1500
      9 C9         -6.2906    3.7923   50.6399 C.ar    1  ZINC000550011575   -0.1500
     10 C10        -6.8345    4.8729   51.3126 C.ar    1  ZINC000550011575    0.1400
     11 F11        -8.1737    4.9728   51.4602 F       1  ZINC000550011575   -0.1100
     12 C12        -6.0050    5.8514   51.8345 C.ar    1  ZINC000550011575   -0.1500
     13 C13        -4.6353    5.7487   51.6837 C.ar    1  ZINC000550011575   -0.0700
     14 C14        -4.0920    4.6694   51.0119 C.ar    1  ZINC000550011575   -0.1300
     15 C15        -4.9189    3.6883   50.4944 C.ar    1  ZINC000550011575    0.0000
     16 Cl16       -4.2357    2.3331   49.6516 Cl      1  ZINC000550011575   -0.0500
     17 S17        -9.9567    1.4029   54.1641 S.o2    1  ZINC000550011575    2.4500
     18 O18       -11.0558    1.9878   53.4791 O.2     1  ZINC000550011575   -0.9200
     19 O19       -10.2013    0.3942   55.1347 O.2     1  ZINC000550011575   -0.9100
     20 C20        -8.9873    2.7265   54.9378 C.3     1  ZINC000550011575   -0.5300
     21 H21        -9.0535    3.6257   54.3253 H       1  ZINC000550011575    0.1500
     22 C22        -7.5268    2.2901   55.0352 C.3     1  ZINC000550011575   -0.1100
     23 C23        -6.7690    3.3203   55.8808 C.3     1  ZINC000550011575   -0.1100
     24 C24        -7.2392    3.1952   57.3286 C.3     1  ZINC000550011575   -0.0900
     25 C25        -8.7431    3.2401   57.4025 C.ar    1  ZINC000550011575   -0.0600
     26 C26        -9.3219    3.5192   58.6335 C.ar    1  ZINC000550011575   -0.1200
     27 C27       -10.6942    3.5690   58.7679 C.ar    1  ZINC000550011575   -0.1100
     28 C28       -11.5002    3.3385   57.6689 C.ar    1  ZINC000550011575   -0.1100
     29 C29       -10.9270    3.0635   56.4443 C.ar    1  ZINC000550011575   -0.1500
     30 C30        -9.5454    3.0159   56.3066 C.ar    1  ZINC000550011575   -0.0800
     31 H31        -9.4206   -1.3062   53.0030 H       1  ZINC000550011575    0.0900
     32 H32       -10.3942   -0.2735   51.9288 H       1  ZINC000550011575    0.0900
     33 H33        -8.7646   -0.7885   51.4314 H       1  ZINC000550011575    0.0800
     34 H34        -6.8329   -0.2409   50.6100 H       1  ZINC000550011575    0.0700
     35 H35        -5.5136    0.8984   50.9699 H       1  ZINC000550011575    0.0800
     36 H36        -6.5189    0.2552   52.2903 H       1  ZINC000550011575    0.0700
     37 H37        -6.7110    2.2658   49.2091 H       1  ZINC000550011575    0.1000
     38 H38        -8.1366    3.1753   49.7647 H       1  ZINC000550011575    0.1100
     39 H39        -6.4287    6.6950   52.3591 H       1  ZINC000550011575    0.1500
     40 H40        -3.9887    6.5121   52.0905 H       1  ZINC000550011575    0.1500
     41 H41        -3.0214    4.5902   50.8943 H       1  ZINC000550011575    0.1400
     42 H42        -7.4674    1.3106   55.5099 H       1  ZINC000550011575    0.0800
     43 H43        -7.0908    2.2421   54.0374 H       1  ZINC000550011575    0.0900
     44 H44        -5.6981    3.1251   55.8246 H       1  ZINC000550011575    0.0800
     45 H45        -6.9795    4.3242   55.5120 H       1  ZINC000550011575    0.0700
     46 H46        -6.8873    2.2494   57.7404 H       1  ZINC000550011575    0.0800
     47 H47        -6.8259    4.0171   57.9131 H       1  ZINC000550011575    0.0800
     48 H48        -8.6927    3.6984   59.4928 H       1  ZINC000550011575    0.1300
     49 H49       -11.1371    3.7870   59.7285 H       1  ZINC000550011575    0.1300
     50 H50       -12.5751    3.3733   57.7684 H       1  ZINC000550011575    0.1300
     51 H51       -11.5574    2.8829   55.5863 H       1  ZINC000550011575    0.1700
@<TRIPOS>BOND
     1     1     2    1
     2     1    31    1
     3     1    32    1
     4     1    33    1
     5     2     3    1
     6     2     4    1
     7     2    17    1
     8     4     5    2
     9     4     6   am
    10     6     7    1
    11     6     8    1
    12     7    34    1
    13     7    35    1
    14     7    36    1
    15     8     9    1
    16     8    37    1
    17     8    38    1
    18     9    15   ar
    19     9    10   ar
    20    10    11    1
    21    10    12   ar
    22    12    13   ar
    23    12    39    1
    24    13    14   ar
    25    13    40    1
    26    14    15   ar
    27    14    41    1
    28    15    16    1
    29    17    18    2
    30    17    19    2
    31    17    20    1
    32    20    21    1
    33    20    30    1
    34    20    22    1
    35    22    23    1
    36    22    42    1
    37    22    43    1
    38    23    24    1
    39    23    44    1
    40    23    45    1
    41    24    25    1
    42    24    46    1
    43    24    47    1
    44    25    30   ar
    45    25    26   ar
    46    26    27   ar
    47    26    48    1
    48    27    28   ar
    49    27    49    1
    50    28    29   ar
    51    28    50    1
    52    29    30   ar
    53    29    51    1
@<TRIPOS>SUBSTRUCTURE
     1 ZINC000550011575        1 TEMP              0 ****  ****    0 ROOT


##########                                Name:    ZINC001085817863
##########                DOCK_Rotatable_Bonds:                   7
##########                         Heavy_Atoms:                  24
##########                    Molecular_Weight:             326.442
##########                DOCK_Rotatable_Bonds:                   7
##########                       Formal_Charge:           0.0299998
##########                     HBond_Acceptors:                   5
##########                        HBond_Donors:                   0
##########                         Heavy_Atoms:                  24
##########                          Grid_Score:          -28.558977
##########                     Grid_vdw_energy:          -27.652481
##########                      Grid_es_energy:           -0.906495
##########           Internal_energy_repulsive:           14.235162

@<TRIPOS>MOLECULE
ZINC001085817863
 50 52 1 0 0
SMALL
USER_CHARGES


@<TRIPOS>ATOM
      1 C1        -13.1840    1.5568   61.2829 C.3     1  ZINC001085817863   -0.1400
      2 C2        -12.7399    0.4032   62.1845 C.3     1  ZINC001085817863   -0.0700
      3 C3        -11.9911   -0.6157   61.3647 C.2     1  ZINC001085817863    0.1100
      4 C4        -12.4997   -1.7957   60.8961 C.2     1  ZINC001085817863   -0.2400
      5 C5        -13.8656   -2.3102   61.0909 C.2     1  ZINC001085817863    0.6000
      6 O6        -14.1905   -2.7819   62.1638 O.2     1  ZINC001085817863   -0.5300
      7 N7        -14.7558   -2.2584   60.0802 N.am    1  ZINC001085817863   -0.6100
      8 C8        -16.1147   -2.7703   60.2741 C.3     1  ZINC001085817863    0.0800
      9 C9        -14.3645   -1.6902   58.7879 C.3     1  ZINC001085817863    0.1300
     10 C10       -13.8750   -2.8088   57.8661 C.3     1  ZINC001085817863    0.0100
     11 H11       -12.9716   -3.2942   58.2353 H       1  ZINC001085817863    0.0800
     12 C12       -14.9790   -3.7966   57.4634 C.3     1  ZINC001085817863   -0.1400
     13 C13       -14.2800   -3.7542   56.0974 C.3     1  ZINC001085817863    0.0000
     14 N14       -13.7892   -2.4075   56.4495 N.3     1  ZINC001085817863   -0.4400
     15 C15       -12.3912   -2.2314   56.0343 C.3     1  ZINC001085817863    0.0700
     16 C16       -12.3391   -1.9355   54.5577 C.ar    1  ZINC001085817863   -0.1300
     17 C17       -13.3272   -1.1682   53.9602 C.ar    1  ZINC001085817863   -0.0700
     18 C18       -13.2381   -0.9211   52.5987 C.ar    1  ZINC001085817863   -0.1700
     19 C19       -12.1750   -1.4440   51.8875 C.ar    1  ZINC001085817863    0.1000
     20 N20       -11.2527   -2.1700   52.4891 N.ar    1  ZINC001085817863   -0.4800
     21 C21       -11.3024   -2.4208   53.7827 C.ar    1  ZINC001085817863    0.1200
     22 C22       -11.4097   -2.4448   60.1596 C.2     1  ZINC001085817863   -0.1900
     23 C23       -10.3522   -1.6181   60.2426 C.2     1  ZINC001085817863   -0.0200
     24 N24       -10.7093   -0.5164   60.9640 N.pl3   1  ZINC001085817863   -0.4400
     25 C25        -9.8221    0.6090   61.2680 C.3     1  ZINC001085817863    0.0600
     26 H26       -13.7257    2.2937   61.8758 H       1  ZINC001085817863    0.0600
     27 H27       -12.3081    2.0247   60.8335 H       1  ZINC001085817863    0.0500
     28 H28       -13.8347    1.1737   60.4967 H       1  ZINC001085817863    0.0600
     29 H29       -12.0893    0.7862   62.9706 H       1  ZINC001085817863    0.0600
     30 H30       -13.6159   -0.0647   62.6338 H       1  ZINC001085817863    0.1100
     31 H31       -16.5900   -2.2366   61.0971 H       1  ZINC001085817863    0.0700
     32 H32       -16.6927   -2.6210   59.3622 H       1  ZINC001085817863    0.0700
     33 H33       -16.0723   -3.8342   60.5074 H       1  ZINC001085817863    0.0600
     34 H34       -15.2228   -1.1947   58.3341 H       1  ZINC001085817863    0.0800
     35 H35       -13.5637   -0.9658   58.9369 H       1  ZINC001085817863    0.1000
     36 H36       -14.9189   -4.7621   57.9658 H       1  ZINC001085817863    0.0800
     37 H37       -15.9820   -3.3698   57.4650 H       1  ZINC001085817863    0.1000
     38 H38       -13.4843   -4.4919   55.9937 H       1  ZINC001085817863    0.0700
     39 H39       -14.9720   -3.7584   55.2552 H       1  ZINC001085817863    0.0800
     40 H40       -11.9497   -1.4021   56.5869 H       1  ZINC001085817863    0.0900
     41 H41       -11.8328   -3.1444   56.2418 H       1  ZINC001085817863    0.0500
     42 H42       -14.1471   -0.7727   54.5414 H       1  ZINC001085817863    0.1300
     43 H43       -13.9903   -0.3277   52.1002 H       1  ZINC001085817863    0.1300
     44 H44       -12.0985   -1.2564   50.8267 H       1  ZINC001085817863    0.1600
     45 H45       -10.5289   -3.0194   54.2404 H       1  ZINC001085817863    0.1500
     46 H46       -11.4487   -3.3972   59.6518 H       1  ZINC001085817863    0.1600
     47 H47        -9.3804   -1.7954   59.8062 H       1  ZINC001085817863    0.1600
     48 H48        -9.9004    1.3569   60.4790 H       1  ZINC001085817863    0.0800
     49 H49       -10.1122    1.0536   62.2200 H       1  ZINC001085817863    0.0900
     50 H50        -8.7935    0.2539   61.3312 H       1  ZINC001085817863    0.0900
@<TRIPOS>BOND
     1     1     2    1
     2     1    26    1
     3     1    27    1
     4     1    28    1
     5     2     3    1
     6     2    29    1
     7     2    30    1
     8     3    24    1
     9     3     4    2
    10     4     5    1
    11     4    22    1
    12     5     6    2
    13     5     7   am
    14     7     8    1
    15     7     9    1
    16     8    31    1
    17     8    32    1
    18     8    33    1
    19     9    10    1
    20     9    34    1
    21     9    35    1
    22    10    11    1
    23    10    14    1
    24    10    12    1
    25    12    13    1
    26    12    36    1
    27    12    37    1
    28    13    14    1
    29    13    38    1
    30    13    39    1
    31    14    15    1
    32    15    16    1
    33    15    40    1
    34    15    41    1
    35    16    21   ar
    36    16    17   ar
    37    17    18   ar
    38    17    42    1
    39    18    19   ar
    40    18    43    1
    41    19    20   ar
    42    19    44    1
    43    20    21   ar
    44    21    45    1
    45    22    23    2
    46    22    46    1
    47    23    24    1
    48    23    47    1
    49    24    25    1
    50    25    48    1
    51    25    49    1
    52    25    50    1
@<TRIPOS>SUBSTRUCTURE
     1 ZINC001085817863        1 TEMP              0 ****  ****    0 ROOT


##########                                Name:    ZINC001070580102
##########                DOCK_Rotatable_Bonds:                   8
##########                         Heavy_Atoms:                  25
##########                    Molecular_Weight:              349.39
##########                DOCK_Rotatable_Bonds:                   8
##########                       Formal_Charge:          -0.0100003
##########                     HBond_Acceptors:                   9
##########                        HBond_Donors:                   3
##########                         Heavy_Atoms:                  25
##########                          Grid_Score:          -28.551832
##########                     Grid_vdw_energy:          -28.361692
##########                      Grid_es_energy:           -0.190140
##########           Internal_energy_repulsive:           12.030205

@<TRIPOS>MOLECULE
ZINC001070580102
 48 50 1 0 0
SMALL
USER_CHARGES


@<TRIPOS>ATOM
      1 C1          4.1436    2.9564   47.1461 C.3     1  ZINC001070580102   -0.0800
      2 C2          3.2637    2.7534   48.3526 C.2     1  ZINC001070580102   -0.0100
      3 C3          2.2619    3.5625   48.7298 C.2     1  ZINC001070580102   -0.1900
      4 C4          1.6977    2.9655   49.9492 C.2     1  ZINC001070580102   -0.2500
      5 C5          0.5724    3.4758   50.7525 C.2     1  ZINC001070580102    0.6000
      6 O6          0.5424    4.6458   51.0827 O.2     1  ZINC001070580102   -0.5300
      7 N7         -0.4235    2.6458   51.1211 N.am    1  ZINC001070580102   -0.7200
      8 C8         -1.5411    3.1527   51.9211 C.3     1  ZINC001070580102    0.2000
      9 C9         -2.8170    3.0458   51.1263 C.2     1  ZINC001070580102    0.2600
     10 N10        -4.0047    3.4229   51.5253 N.2     1  ZINC001070580102   -0.5100
     11 C11        -4.9005    3.1813   50.5691 C.2     1  ZINC001070580102    0.2300
     12 C12        -6.3752    3.4790   50.6555 C.3     1  ZINC001070580102    0.1400
     13 H13        -6.8263    3.3733   49.6688 H       1  ZINC001070580102    0.0800
     14 C14        -6.5793    4.9100   51.1601 C.3     1  ZINC001070580102    0.0800
     15 O15        -7.9788    5.1618   51.3116 O.3     1  ZINC001070580102   -0.3800
     16 C16        -8.6306    4.2656   52.2158 C.3     1  ZINC001070580102    0.0600
     17 C17        -8.4474    2.8281   51.7218 C.3     1  ZINC001070580102    0.0200
     18 N18        -7.0120    2.5392   51.5895 N.3     1  ZINC001070580102   -0.5200
     19 C19        -6.7914    1.1484   51.1710 C.3     1  ZINC001070580102    0.0600
     20 C20        -7.4488    0.2025   52.1780 C.3     1  ZINC001070580102    0.0800
     21 O21        -8.6695   -0.3012   51.6316 O.3     1  ZINC001070580102   -0.5700
     22 N22        -4.2927    2.6449   49.5437 N.2     1  ZINC001070580102   -0.2700
     23 N23        -2.9325    2.5520   49.8814 N.pl3   1  ZINC001070580102   -0.4700
     24 C24         2.4329    1.8400   50.1811 C.2     1  ZINC001070580102    0.0900
     25 C25         2.2365    0.8790   51.3252 C.3     1  ZINC001070580102   -0.0900
     26 O26         3.3533    1.7316   49.2181 O.3     1  ZINC001070580102   -0.1700
     27 H27         4.8673    2.1437   47.0833 H       1  ZINC001070580102    0.0800
     28 H28         3.5292    2.9662   46.2458 H       1  ZINC001070580102    0.0900
     29 H29         4.6708    3.9061   47.2365 H       1  ZINC001070580102    0.0900
     30 H30         1.9367    4.4675   48.2384 H       1  ZINC001070580102    0.1500
     31 H31        -0.4002    1.7128   50.8567 H       1  ZINC001070580102    0.4000
     32 H32        -1.6312    2.5637   52.8339 H       1  ZINC001070580102    0.1000
     33 H33        -1.3598    4.1963   52.1786 H       1  ZINC001070580102    0.1100
     34 H34        -6.0815    5.0310   52.1222 H       1  ZINC001070580102    0.0700
     35 H35        -6.1586    5.6130   50.4410 H       1  ZINC001070580102    0.1000
     36 H36        -8.1924    4.3679   53.2086 H       1  ZINC001070580102    0.0600
     37 H37        -9.6936    4.5026   52.2602 H       1  ZINC001070580102    0.1000
     38 H38        -8.8933    2.1377   52.4377 H       1  ZINC001070580102    0.1200
     39 H39        -8.9322    2.7119   50.7525 H       1  ZINC001070580102    0.0400
     40 H40        -7.2298    0.9916   50.1855 H       1  ZINC001070580102    0.0500
     41 H41        -5.7210    0.9471   51.1288 H       1  ZINC001070580102    0.0800
     42 H42        -6.7754   -0.6281   52.3894 H       1  ZINC001070580102    0.0500
     43 H43        -7.6595    0.7433   53.1005 H       1  ZINC001070580102    0.0600
     44 H44        -8.5471   -0.9058   50.8869 H       1  ZINC001070580102    0.3800
     45 H45        -2.2193    2.1962   49.3285 H       1  ZINC001070580102    0.4400
     46 H46         1.5330    0.1008   51.0293 H       1  ZINC001070580102    0.0900
     47 H47         3.1923    0.4245   51.5860 H       1  ZINC001070580102    0.0800
     48 H48         1.8424    1.4165   52.1876 H       1  ZINC001070580102    0.1100
@<TRIPOS>BOND
     1     1     2    1
     2     1    27    1
     3     1    28    1
     4     1    29    1
     5     2    26    1
     6     2     3    2
     7     3     4    1
     8     3    30    1
     9     4     5    1
    10     4    24    2
    11     5     6    2
    12     5     7   am
    13     7     8    1
    14     7    31    1
    15     8     9    1
    16     8    32    1
    17     8    33    1
    18     9    23    1
    19     9    10    2
    20    10    11    1
    21    11    12    1
    22    11    22    2
    23    12    13    1
    24    12    18    1
    25    12    14    1
    26    14    15    1
    27    14    34    1
    28    14    35    1
    29    15    16    1
    30    16    17    1
    31    16    36    1
    32    16    37    1
    33    17    18    1
    34    17    38    1
    35    17    39    1
    36    18    19    1
    37    19    20    1
    38    19    40    1
    39    19    41    1
    40    20    21    1
    41    20    42    1
    42    20    43    1
    43    21    44    1
    44    22    23    1
    45    23    45    1
    46    24    25    1
    47    24    26    1
    48    25    46    1
    49    25    47    1
    50    25    48    1
@<TRIPOS>SUBSTRUCTURE
     1 ZINC001070580102        1 TEMP              0 ****  ****    0 ROOT


##########                                Name:    ZINC001220212140
##########                DOCK_Rotatable_Bonds:                   6
##########                         Heavy_Atoms:                  28
##########                    Molecular_Weight:             379.459
##########                DOCK_Rotatable_Bonds:                   6
##########                       Formal_Charge:         -0.00999925
##########                     HBond_Acceptors:                   6
##########                        HBond_Donors:                   1
##########                         Heavy_Atoms:                  28
##########                          Grid_Score:          -28.493687
##########                     Grid_vdw_energy:          -27.691055
##########                      Grid_es_energy:           -0.802631
##########           Internal_energy_repulsive:          171.061264

@<TRIPOS>MOLECULE
ZINC001220212140
 53 56 1 0 0
SMALL
USER_CHARGES


@<TRIPOS>ATOM
      1 C1        -12.0676   -1.8137   56.0453 C.3     1  ZINC001220212140   -0.1700
      2 C2        -12.5529   -0.7185   55.0936 C.3     1  ZINC001220212140    0.0800
      3 H3        -13.6001   -0.4817   55.2818 H       1  ZINC001220212140    0.1200
      4 C4        -11.6734    0.5478   55.2213 C.3     1  ZINC001220212140   -0.1100
      5 C5        -10.6380    0.3211   54.1365 C.ar    1  ZINC001220212140   -0.1500
      6 C6         -9.4188    0.9095   53.8870 C.ar    1  ZINC001220212140   -0.0700
      7 C7         -8.6571    0.4928   52.8020 C.ar    1  ZINC001220212140    0.1400
      8 N8         -7.4148    1.0877   52.5431 N.am    1  ZINC001220212140   -0.6800
      9 C9         -7.3154    2.0671   51.6227 C.2     1  ZINC001220212140    0.7200
     10 O10        -8.3035    2.4346   51.0168 O.2     1  ZINC001220212140   -0.5700
     11 N11        -6.1208    2.6392   51.3737 N.am    1  ZINC001220212140   -0.6300
     12 C12        -5.8710    3.7127   50.4005 C.3     1  ZINC001220212140    0.0900
     13 C13        -4.3707    4.0646   50.4816 C.3     1  ZINC001220212140   -0.1100
     14 C14        -3.9718    3.5630   51.8946 C.3     1  ZINC001220212140   -0.1300
     15 H15        -4.2276    4.2988   52.6570 H       1  ZINC001220212140    0.1200
     16 C16        -2.5060    3.2176   51.9515 C.2     1  ZINC001220212140    0.5300
     17 O17        -2.1231    2.1338   51.5645 O.2     1  ZINC001220212140   -0.5100
     18 N18        -1.6209    4.1130   52.4323 N.am    1  ZINC001220212140   -0.5700
     19 C19        -2.0836    5.4220   52.8997 C.3     1  ZINC001220212140    0.0700
     20 C20        -0.2600    3.7922   52.4851 C.ar    1  ZINC001220212140    0.1400
     21 C21         0.6526    4.7110   52.9866 C.ar    1  ZINC001220212140   -0.1100
     22 C22         1.9953    4.3913   53.0374 C.ar    1  ZINC001220212140   -0.1100
     23 C23         2.4313    3.1580   52.5892 C.ar    1  ZINC001220212140   -0.1200
     24 C24         1.5252    2.2410   52.0888 C.ar    1  ZINC001220212140   -0.1100
     25 C25         0.1804    2.5520   52.0414 C.ar    1  ZINC001220212140   -0.1200
     26 C26        -4.8492    2.2968   52.0365 C.3     1  ZINC001220212140    0.1400
     27 C27        -9.1335   -0.5164   51.9766 C.ar    1  ZINC001220212140   -0.1100
     28 C28       -10.3571   -1.1009   52.2279 C.ar    1  ZINC001220212140   -0.1200
     29 C29       -11.1259   -0.6846   53.3116 C.ar    1  ZINC001220212140    0.0900
     30 O30       -12.3574   -1.1102   53.7243 O.3     1  ZINC001220212140   -0.3000
     31 H31       -11.0235   -2.0437   55.8324 H       1  ZINC001220212140    0.0600
     32 H32       -12.1607   -1.4680   57.0749 H       1  ZINC001220212140    0.0800
     33 H33       -12.6725   -2.7098   55.9068 H       1  ZINC001220212140    0.0700
     34 H34       -12.2552    1.4477   55.0224 H       1  ZINC001220212140    0.0900
     35 H35       -11.2037    0.5984   56.2035 H       1  ZINC001220212140    0.0900
     36 H36        -9.0546    1.6939   54.5338 H       1  ZINC001220212140    0.1400
     37 H37        -6.6265    0.7946   53.0265 H       1  ZINC001220212140    0.4100
     38 H38        -6.1170    3.3673   49.3963 H       1  ZINC001220212140    0.0700
     39 H39        -6.4711    4.5874   50.6514 H       1  ZINC001220212140    0.0700
     40 H40        -3.8083    3.5361   49.7118 H       1  ZINC001220212140    0.1000
     41 H41        -4.2221    5.1413   50.3985 H       1  ZINC001220212140    0.0900
     42 H42        -2.3251    5.3643   53.9611 H       1  ZINC001220212140    0.0700
     43 H43        -1.2977    6.1614   52.7458 H       1  ZINC001220212140    0.0800
     44 H44        -2.9722    5.7143   52.3403 H       1  ZINC001220212140    0.0800
     45 H45         0.3128    5.6747   53.3362 H       1  ZINC001220212140    0.1200
     46 H46         2.7054    5.1055   53.4273 H       1  ZINC001220212140    0.1300
     47 H47         3.4818    2.9105   52.6295 H       1  ZINC001220212140    0.1300
     48 H48         1.8690    1.2789   51.7388 H       1  ZINC001220212140    0.1300
     49 H49        -0.5268    1.8355   51.6506 H       1  ZINC001220212140    0.1200
     50 H50        -5.0159    2.0667   53.0888 H       1  ZINC001220212140    0.0900
     51 H51        -4.3802    1.4519   51.5323 H       1  ZINC001220212140    0.0700
     52 H52        -8.5435   -0.8449   51.1336 H       1  ZINC001220212140    0.1300
     53 H53       -10.7207   -1.8855   51.5810 H       1  ZINC001220212140    0.1300
@<TRIPOS>BOND
     1     1     2    1
     2     1    31    1
     3     1    32    1
     4     1    33    1
     5     2     3    1
     6     2    30    1
     7     2     4    1
     8     4     5    1
     9     4    34    1
    10     4    35    1
    11     5    29   ar
    12     5     6   ar
    13     6     7   ar
    14     6    36    1
    15     7     8    1
    16     7    27   ar
    17     8     9   am
    18     8    37    1
    19     9    10    2
    20     9    11   am
    21    11    26    1
    22    11    12    1
    23    12    13    1
    24    12    38    1
    25    12    39    1
    26    13    14    1
    27    13    40    1
    28    13    41    1
    29    14    15    1
    30    14    16    1
    31    14    26    1
    32    16    17    2
    33    16    18   am
    34    18    19    1
    35    18    20    1
    36    19    42    1
    37    19    43    1
    38    19    44    1
    39    20    25   ar
    40    20    21   ar
    41    21    22   ar
    42    21    45    1
    43    22    23   ar
    44    22    46    1
    45    23    24   ar
    46    23    47    1
    47    24    25   ar
    48    24    48    1
    49    25    49    1
    50    26    50    1
    51    26    51    1
    52    27    28   ar
    53    27    52    1
    54    28    29   ar
    55    28    53    1
    56    29    30    1
@<TRIPOS>SUBSTRUCTURE
     1 ZINC001220212140        1 TEMP              0 ****  ****    0 ROOT


##########                                Name:    ZINC000062882109
##########                DOCK_Rotatable_Bonds:                   8
##########                         Heavy_Atoms:                  31
##########                    Molecular_Weight:             424.497
##########                DOCK_Rotatable_Bonds:                   8
##########                       Formal_Charge:           0.0299993
##########                     HBond_Acceptors:                   7
##########                        HBond_Donors:                   1
##########                         Heavy_Atoms:                  31
##########                          Grid_Score:          -28.473831
##########                     Grid_vdw_energy:          -24.536304
##########                      Grid_es_energy:           -3.937527
##########           Internal_energy_repulsive:          190.435852

@<TRIPOS>MOLECULE
ZINC000062882109
 59 61 1 0 0
SMALL
USER_CHARGES


@<TRIPOS>ATOM
      1 C1         -8.0781    0.5144   65.3811 C.3     1  ZINC000062882109   -0.2000
      2 C2         -9.1832    0.8301   66.3558 C.2     1  ZINC000062882109    0.3900
      3 O3         -9.1857    0.3199   67.4557 O.2     1  ZINC000062882109   -0.4500
      4 C4        -10.2596    1.7580   65.9726 C.ar    1  ZINC000062882109   -0.1300
      5 C5        -11.2942    2.0421   66.8696 C.ar    1  ZINC000062882109   -0.1100
      6 C6        -12.3008    2.9123   66.5061 C.ar    1  ZINC000062882109   -0.0900
      7 C7        -12.2911    3.5056   65.2570 C.ar    1  ZINC000062882109   -0.1800
      8 C8        -11.2684    3.2300   64.3584 C.ar    1  ZINC000062882109    0.1200
      9 O9        -11.2654    3.8167   63.1323 O.3     1  ZINC000062882109   -0.2800
     10 C10       -10.1585    3.5257   62.2767 C.3     1  ZINC000062882109    0.0700
     11 H11        -9.2372    3.5330   62.8591 H       1  ZINC000062882109    0.1000
     12 C12       -10.0737    4.5839   61.1749 C.3     1  ZINC000062882109   -0.1800
     13 C13       -10.3486    2.1665   61.6542 C.2     1  ZINC000062882109    0.5200
     14 O14       -11.2808    1.4689   61.9938 O.2     1  ZINC000062882109   -0.4900
     15 N15        -9.4826    1.7262   60.7200 N.am    1  ZINC000062882109   -0.6600
     16 C16        -9.6593    0.4626   60.1412 C.ar    1  ZINC000062882109    0.1400
     17 C17        -8.8441   -0.5955   60.5198 C.ar    1  ZINC000062882109   -0.1000
     18 C18        -9.0141   -1.8428   59.9501 C.ar    1  ZINC000062882109   -0.1100
     19 C19       -10.0004   -2.0442   58.9962 C.ar    1  ZINC000062882109    0.0800
     20 O20       -10.1519   -3.2743   58.4365 O.3     1  ZINC000062882109   -0.3100
     21 C21       -11.4039   -3.5732   57.8146 C.3     1  ZINC000062882109    0.0500
     22 C22       -11.7692   -2.4265   56.8613 C.3     1  ZINC000062882109    0.0400
     23 N23       -11.8242   -1.1876   57.6559 N.am    1  ZINC000062882109   -0.5500
     24 C24       -12.8032   -0.2807   57.4668 C.2     1  ZINC000062882109    0.5300
     25 O25       -12.8282    0.7326   58.1329 O.2     1  ZINC000062882109   -0.5100
     26 C26       -13.8667   -0.5257   56.4275 C.3     1  ZINC000062882109   -0.0800
     27 C27       -14.7484    0.7178   56.2970 C.3     1  ZINC000062882109   -0.1300
     28 C28       -13.2045   -0.8250   55.0810 C.3     1  ZINC000062882109   -0.1600
     29 C29       -14.7267   -1.7188   56.8493 C.3     1  ZINC000062882109   -0.1500
     30 C30       -10.8207   -0.9839   58.6187 C.ar    1  ZINC000062882109    0.1000
     31 C31       -10.6536    0.2655   59.1921 C.ar    1  ZINC000062882109   -0.1400
     32 C32       -10.2491    2.3636   64.7127 C.ar    1  ZINC000062882109   -0.0900
     33 H33        -7.3791   -0.1855   65.8388 H       1  ZINC000062882109    0.0900
     34 H34        -8.5031    0.0678   64.4821 H       1  ZINC000062882109    0.1000
     35 H35        -7.5529    1.4324   65.1174 H       1  ZINC000062882109    0.1000
     36 H36       -11.3052    1.5804   67.8458 H       1  ZINC000062882109    0.1400
     37 H37       -13.0996    3.1309   67.1993 H       1  ZINC000062882109    0.1300
     38 H38       -13.0823    4.1860   64.9788 H       1  ZINC000062882109    0.1300
     39 H39        -9.9363    5.5670   61.6253 H       1  ZINC000062882109    0.0800
     40 H40        -9.2293    4.3620   60.5222 H       1  ZINC000062882109    0.0800
     41 H41       -10.9950    4.5767   60.5924 H       1  ZINC000062882109    0.0800
     42 H42        -8.7371    2.2841   60.4483 H       1  ZINC000062882109    0.4100
     43 H43        -8.0745   -0.4431   61.2620 H       1  ZINC000062882109    0.1400
     44 H44        -8.3771   -2.6625   60.2478 H       1  ZINC000062882109    0.1400
     45 H45       -11.3195   -4.5031   57.2521 H       1  ZINC000062882109    0.1300
     46 H46       -12.1758   -3.6742   58.5774 H       1  ZINC000062882109    0.0700
     47 H47       -11.0096   -2.3346   56.0850 H       1  ZINC000062882109    0.0900
     48 H48       -12.7416   -2.6184   56.4075 H       1  ZINC000062882109    0.1300
     49 H49       -14.1357    1.5678   55.9965 H       1  ZINC000062882109    0.0600
     50 H50       -15.5176    0.5406   55.5453 H       1  ZINC000062882109    0.0700
     51 H51       -15.2201    0.9310   57.2562 H       1  ZINC000062882109    0.0700
     52 H52       -12.5764   -1.7109   55.1739 H       1  ZINC000062882109    0.0700
     53 H53       -13.9737   -1.0022   54.3293 H       1  ZINC000062882109    0.0800
     54 H54       -12.5919    0.0249   54.7805 H       1  ZINC000062882109    0.0600
     55 H55       -15.3496   -1.4358   57.6977 H       1  ZINC000062882109    0.0700
     56 H56       -15.3621   -2.0210   56.0168 H       1  ZINC000062882109    0.0800
     57 H57       -14.0809   -2.5496   57.1336 H       1  ZINC000062882109    0.0700
     58 H58       -11.2920    1.0856   58.8985 H       1  ZINC000062882109    0.1800
     59 H59        -9.4533    2.1490   64.0148 H       1  ZINC000062882109    0.1400
@<TRIPOS>BOND
     1     1     2    1
     2     1    33    1
     3     1    34    1
     4     1    35    1
     5     2     3    2
     6     2     4    1
     7     4    32   ar
     8     4     5   ar
     9     5     6   ar
    10     5    36    1
    11     6     7   ar
    12     6    37    1
    13     7     8   ar
    14     7    38    1
    15     8     9    1
    16     8    32   ar
    17     9    10    1
    18    10    11    1
    19    10    12    1
    20    10    13    1
    21    12    39    1
    22    12    40    1
    23    12    41    1
    24    13    14    2
    25    13    15   am
    26    15    16    1
    27    15    42    1
    28    16    31   ar
    29    16    17   ar
    30    17    18   ar
    31    17    43    1
    32    18    19   ar
    33    18    44    1
    34    19    30   ar
    35    19    20    1
    36    20    21    1
    37    21    22    1
    38    21    45    1
    39    21    46    1
    40    22    23    1
    41    22    47    1
    42    22    48    1
    43    23    24   am
    44    23    30    1
    45    24    25    2
    46    24    26    1
    47    26    27    1
    48    26    28    1
    49    26    29    1
    50    27    49    1
    51    27    50    1
    52    27    51    1
    53    28    52    1
    54    28    53    1
    55    28    54    1
    56    29    55    1
    57    29    56    1
    58    29    57    1
    59    30    31   ar
    60    31    58    1
    61    32    59    1
@<TRIPOS>SUBSTRUCTURE
     1 ZINC000062882109        1 TEMP              0 ****  ****    0 ROOT


##########                                Name:    ZINC000496437542
##########                DOCK_Rotatable_Bonds:                   7
##########                         Heavy_Atoms:                  24
##########                    Molecular_Weight:             338.447
##########                DOCK_Rotatable_Bonds:                   7
##########                       Formal_Charge:           0.0400002
##########                     HBond_Acceptors:                   6
##########                        HBond_Donors:                   1
##########                         Heavy_Atoms:                  24
##########                          Grid_Score:          -28.472662
##########                     Grid_vdw_energy:          -28.682041
##########                      Grid_es_energy:            0.209379
##########           Internal_energy_repulsive:           16.705143

@<TRIPOS>MOLECULE
ZINC000496437542
 54 55 1 0 0
SMALL
USER_CHARGES


@<TRIPOS>ATOM
      1 C1         -4.7515    4.3259   51.2638 C.3     1  ZINC000496437542   -0.1800
      2 C2         -4.0544    2.9642   51.2315 C.3     1  ZINC000496437542    0.1400
      3 C3         -3.7300    2.5916   49.7835 C.3     1  ZINC000496437542   -0.1800
      4 C4         -2.7589    3.0352   52.0423 C.3     1  ZINC000496437542   -0.1400
      5 O5         -4.9303    1.9584   51.8054 O.3     1  ZINC000496437542   -0.3600
      6 C6         -6.2339    2.0226   51.4750 C.2     1  ZINC000496437542    0.6600
      7 O7         -6.5934    1.7088   50.3575 O.2     1  ZINC000496437542   -0.5600
      8 N8         -7.1399    2.4348   52.3835 N.am    1  ZINC000496437542   -0.6000
      9 C9         -8.5699    2.5130   52.0455 C.3     1  ZINC000496437542    0.0800
     10 C10        -9.3644    1.7781   53.1312 C.3     1  ZINC000496437542    0.0500
     11 O11        -8.9868    2.2833   54.4141 O.3     1  ZINC000496437542   -0.3700
     12 C12        -7.6127    2.0694   54.7460 C.3     1  ZINC000496437542    0.0700
     13 H13        -7.3893    1.0034   54.7025 H       1  ZINC000496437542    0.0700
     14 C14        -7.3410    2.5912   56.1584 C.3     1  ZINC000496437542    0.1300
     15 N15        -7.8351    1.6227   57.1403 N.am    1  ZINC000496437542   -0.7200
     16 C16        -9.0741    1.7561   57.6538 C.2     1  ZINC000496437542    0.5600
     17 O17        -9.7824    2.6797   57.3010 O.2     1  ZINC000496437542   -0.5400
     18 C18        -9.5697    0.7847   58.6410 C.2     1  ZINC000496437542   -0.1900
     19 C19        -8.7258   -0.0238   59.2449 C.2     1  ZINC000496437542   -0.0600
     20 C20        -9.2252   -1.0278   60.2624 C.3     1  ZINC000496437542   -0.1000
     21 C21        -9.6410   -0.2738   61.5276 C.3     1  ZINC000496437542   -0.1100
     22 C22       -11.0725    0.2180   61.4162 C.3     1  ZINC000496437542   -0.1200
     23 C23       -11.2726    1.2900   60.3605 C.3     1  ZINC000496437542   -0.1200
     24 C24       -11.0481    0.7241   58.9621 C.3     1  ZINC000496437542   -0.0800
     25 C25        -6.7293    2.8139   53.7448 C.3     1  ZINC000496437542    0.1000
     26 H26        -5.6744    4.2754   50.6861 H       1  ZINC000496437542    0.0900
     27 H27        -4.9826    4.5913   52.2954 H       1  ZINC000496437542    0.0600
     28 H28        -4.0940    5.0810   50.8329 H       1  ZINC000496437542    0.0700
     29 H29        -3.0725    3.3467   49.3526 H       1  ZINC000496437542    0.0700
     30 H30        -3.2333    1.6216   49.7604 H       1  ZINC000496437542    0.0600
     31 H31        -4.6529    2.5411   49.2057 H       1  ZINC000496437542    0.0900
     32 H32        -2.9900    3.3006   53.0740 H       1  ZINC000496437542    0.0700
     33 H33        -2.2623    2.0651   52.0193 H       1  ZINC000496437542    0.0700
     34 H34        -2.1014    3.7903   51.6115 H       1  ZINC000496437542    0.0800
     35 H35        -8.8812    3.5569   52.0060 H       1  ZINC000496437542    0.0800
     36 H36        -8.7452    2.0404   51.0790 H       1  ZINC000496437542    0.1000
     37 H37       -10.4309    1.9411   52.9753 H       1  ZINC000496437542    0.1100
     38 H38        -9.1474    0.7111   53.0818 H       1  ZINC000496437542    0.0600
     39 H39        -6.2684    2.7310   56.2940 H       1  ZINC000496437542    0.0900
     40 H40        -7.8521    3.5437   56.2985 H       1  ZINC000496437542    0.0800
     41 H41        -7.2708    0.8854   57.4207 H       1  ZINC000496437542    0.4000
     42 H42        -7.6721    0.0285   59.0137 H       1  ZINC000496437542    0.1300
     43 H43       -10.0833   -1.5638   59.8570 H       1  ZINC000496437542    0.0800
     44 H44        -8.4294   -1.7332   60.5016 H       1  ZINC000496437542    0.0800
     45 H45        -9.5565   -0.9401   62.3861 H       1  ZINC000496437542    0.0700
     46 H46        -8.9786    0.5799   61.6704 H       1  ZINC000496437542    0.0700
     47 H47       -11.7140   -0.6301   61.1767 H       1  ZINC000496437542    0.0600
     48 H48       -11.3785    0.6197   62.3821 H       1  ZINC000496437542    0.0600
     49 H49       -12.2885    1.6786   60.4319 H       1  ZINC000496437542    0.0700
     50 H50       -10.5660    2.1014   60.5349 H       1  ZINC000496437542    0.0600
     51 H51       -11.6045    1.3150   58.2345 H       1  ZINC000496437542    0.0700
     52 H52       -11.3831   -0.3126   58.9286 H       1  ZINC000496437542    0.0800
     53 H53        -5.6855    2.5430   53.9039 H       1  ZINC000496437542    0.1100
     54 H54        -6.8538    3.8890   53.8738 H       1  ZINC000496437542    0.0900
@<TRIPOS>BOND
     1     1     2    1
     2     1    26    1
     3     1    27    1
     4     1    28    1
     5     2     3    1
     6     2     4    1
     7     2     5    1
     8     3    29    1
     9     3    30    1
    10     3    31    1
    11     4    32    1
    12     4    33    1
    13     4    34    1
    14     5     6    1
    15     6     7    2
    16     6     8   am
    17     8    25    1
    18     8     9    1
    19     9    10    1
    20     9    35    1
    21     9    36    1
    22    10    11    1
    23    10    37    1
    24    10    38    1
    25    11    12    1
    26    12    13    1
    27    12    14    1
    28    12    25    1
    29    14    15    1
    30    14    39    1
    31    14    40    1
    32    15    16   am
    33    15    41    1
    34    16    17    2
    35    16    18    1
    36    18    24    1
    37    18    19    2
    38    19    20    1
    39    19    42    1
    40    20    21    1
    41    20    43    1
    42    20    44    1
    43    21    22    1
    44    21    45    1
    45    21    46    1
    46    22    23    1
    47    22    47    1
    48    22    48    1
    49    23    24    1
    50    23    49    1
    51    23    50    1
    52    24    51    1
    53    24    52    1
    54    25    53    1
    55    25    54    1
@<TRIPOS>SUBSTRUCTURE
     1 ZINC000496437542        1 TEMP              0 ****  ****    0 ROOT


##########                                Name:    ZINC001064463188
##########                DOCK_Rotatable_Bonds:                   6
##########                         Heavy_Atoms:                  25
##########                    Molecular_Weight:             342.441
##########                DOCK_Rotatable_Bonds:                   6
##########                       Formal_Charge:          -0.0100004
##########                     HBond_Acceptors:                   6
##########                        HBond_Donors:                   0
##########                         Heavy_Atoms:                  25
##########                          Grid_Score:          -28.443844
##########                     Grid_vdw_energy:          -28.141365
##########                      Grid_es_energy:           -0.302479
##########           Internal_energy_repulsive:           14.150833

@<TRIPOS>MOLECULE
ZINC001064463188
 51 54 1 0 0
SMALL
USER_CHARGES


@<TRIPOS>ATOM
      1 C1         -8.1558    2.0544   54.2487 C.3     1  ZINC001064463188    0.0400
      2 O2         -9.5454    1.9248   54.5554 O.3     1  ZINC001064463188   -0.3000
      3 C3        -10.1295    0.7350   54.2733 C.ar    1  ZINC001064463188    0.3900
      4 C4        -10.0665    0.2044   52.9858 C.ar    1  ZINC001064463188   -0.2800
      5 C5        -10.6764   -1.0122   52.7430 C.ar    1  ZINC001064463188    0.2000
      6 N6        -11.2983   -1.6337   53.7333 N.ar    1  ZINC001064463188   -0.5800
      7 C7        -11.3419   -1.1050   54.9473 C.ar    1  ZINC001064463188    0.5300
      8 N8        -12.0010   -1.7851   55.9565 N.3     1  ZINC001064463188   -0.4500
      9 C9        -13.4471   -1.6048   55.8515 C.3     1  ZINC001064463188    0.0700
     10 C10       -14.0474   -1.3322   57.2359 C.3     1  ZINC001064463188   -0.1200
     11 C11       -13.9442   -2.5393   58.1485 C.3     1  ZINC001064463188    0.1400
     12 H12       -14.3267   -2.2902   59.1384 H       1  ZINC001064463188    0.0900
     13 C13       -14.7044   -3.7406   57.5830 C.3     1  ZINC001064463188   -0.1300
     14 C14       -13.6661   -4.4704   56.7127 C.3     1  ZINC001064463188   -0.1300
     15 C15       -12.3083   -3.9141   57.1549 C.3     1  ZINC001064463188    0.1200
     16 H16       -11.6792   -4.7264   57.5189 H       1  ZINC001064463188    0.0900
     17 C17       -11.6118   -3.2199   55.9744 C.3     1  ZINC001064463188    0.0600
     18 N18       -12.5028   -2.9152   58.2398 N.am    1  ZINC001064463188   -0.6000
     19 C19       -11.5770   -2.4573   59.1057 C.2     1  ZINC001064463188    0.5800
     20 O20       -10.4340   -2.8687   59.0476 O.2     1  ZINC001064463188   -0.5400
     21 C21       -11.9490   -1.4598   60.1209 C.2     1  ZINC001064463188   -0.2200
     22 C22       -11.2416   -0.3404   60.2437 C.2     1  ZINC001064463188    0.0000
     23 C23       -11.6227    0.6814   61.2838 C.3     1  ZINC001064463188   -0.1300
     24 C24       -10.0589   -0.0936   59.3429 C.3     1  ZINC001064463188   -0.1200
     25 C25        -9.0468    0.9672   59.7804 C.3     1  ZINC001064463188   -0.1900
     26 C26        -8.6805   -0.5165   59.8548 C.3     1  ZINC001064463188   -0.1600
     27 N27       -10.7649    0.0557   55.2205 N.ar    1  ZINC001064463188   -0.5900
     28 H28        -8.0035    1.8993   53.1805 H       1  ZINC001064463188    0.0600
     29 H29        -7.8146    3.0525   54.5232 H       1  ZINC001064463188    0.1000
     30 H30        -7.5892    1.3100   54.8082 H       1  ZINC001064463188    0.0600
     31 H31        -9.5530    0.7320   52.1956 H       1  ZINC001064463188    0.1500
     32 H32       -10.6464   -1.4507   51.7565 H       1  ZINC001064463188    0.1800
     33 H33       -13.6592   -0.7623   55.1934 H       1  ZINC001064463188    0.0800
     34 H34       -13.8944   -2.5074   55.4351 H       1  ZINC001064463188    0.0600
     35 H35       -13.5184   -0.4960   57.6930 H       1  ZINC001064463188    0.0800
     36 H36       -15.0976   -1.0642   57.1201 H       1  ZINC001064463188    0.0800
     37 H37       -15.0487   -4.3880   58.3894 H       1  ZINC001064463188    0.0800
     38 H38       -15.5454   -3.4076   56.9746 H       1  ZINC001064463188    0.0900
     39 H39       -13.7110   -5.5448   56.8916 H       1  ZINC001064463188    0.0800
     40 H40       -13.8379   -4.2545   55.6582 H       1  ZINC001064463188    0.0800
     41 H41       -11.9311   -3.6806   55.0396 H       1  ZINC001064463188    0.0700
     42 H42       -10.5312   -3.3157   56.0804 H       1  ZINC001064463188    0.0900
     43 H43       -12.7965   -1.6367   60.7665 H       1  ZINC001064463188    0.1200
     44 H44       -11.0995    0.4645   62.2151 H       1  ZINC001064463188    0.0800
     45 H45       -11.3456    1.6761   60.9346 H       1  ZINC001064463188    0.0800
     46 H46       -12.6987    0.6428   61.4540 H       1  ZINC001064463188    0.0700
     47 H47       -10.2522   -0.1952   58.2750 H       1  ZINC001064463188    0.1400
     48 H48        -8.5741    1.5637   59.0002 H       1  ZINC001064463188    0.1000
     49 H49        -9.2364    1.4865   60.7197 H       1  ZINC001064463188    0.1000
     50 H50        -8.6291   -0.9731   60.8432 H       1  ZINC001064463188    0.0900
     51 H51        -7.9668   -0.8959   59.1237 H       1  ZINC001064463188    0.1000
@<TRIPOS>BOND
     1     1     2    1
     2     1    28    1
     3     1    29    1
     4     1    30    1
     5     2     3    1
     6     3    27   ar
     7     3     4   ar
     8     4     5   ar
     9     4    31    1
    10     5     6   ar
    11     5    32    1
    12     6     7   ar
    13     7     8    1
    14     7    27   ar
    15     8    17    1
    16     8     9    1
    17     9    10    1
    18     9    33    1
    19     9    34    1
    20    10    11    1
    21    10    35    1
    22    10    36    1
    23    11    12    1
    24    11    18    1
    25    11    13    1
    26    13    14    1
    27    13    37    1
    28    13    38    1
    29    14    15    1
    30    14    39    1
    31    14    40    1
    32    15    16    1
    33    15    17    1
    34    15    18    1
    35    17    41    1
    36    17    42    1
    37    18    19   am
    38    19    20    2
    39    19    21    1
    40    21    22    2
    41    21    43    1
    42    22    23    1
    43    22    24    1
    44    23    44    1
    45    23    45    1
    46    23    46    1
    47    24    26    1
    48    24    25    1
    49    24    47    1
    50    25    26    1
    51    25    48    1
    52    25    49    1
    53    26    50    1
    54    26    51    1
@<TRIPOS>SUBSTRUCTURE
     1 ZINC001064463188        1 TEMP              0 ****  ****    0 ROOT


##########                                Name:    ZINC000057429281
##########                DOCK_Rotatable_Bonds:                  10
##########                         Heavy_Atoms:                  23
##########                    Molecular_Weight:             331.295
##########                DOCK_Rotatable_Bonds:                  10
##########                       Formal_Charge:          -0.0100002
##########                     HBond_Acceptors:                   9
##########                        HBond_Donors:                   5
##########                         Heavy_Atoms:                  23
##########                          Grid_Score:          -28.411079
##########                     Grid_vdw_energy:          -24.015244
##########                      Grid_es_energy:           -4.395836
##########           Internal_energy_repulsive:            9.582714

@<TRIPOS>MOLECULE
ZINC000057429281
 39 39 1 0 0
SMALL
USER_CHARGES


@<TRIPOS>ATOM
      1 C1         -8.9947    1.0824   60.3576 C.3     1  ZINC000057429281   -0.1500
      2 C2        -10.0120    0.1779   61.0560 C.3     1  ZINC000057429281   -0.0400
      3 H3        -10.7580    0.7919   61.5606 H       1  ZINC000057429281    0.0900
      4 C4         -9.2939   -0.6994   62.0833 C.3     1  ZINC000057429281   -0.1300
      5 C5         -9.3607   -0.0432   63.4384 C.2     1  ZINC000057429281    0.5200
      6 O6        -10.4276    0.0752   64.0028 O.2     1  ZINC000057429281   -0.5300
      7 N7         -8.2349    0.4120   64.0230 N.am    1  ZINC000057429281   -0.7000
      8 C8         -8.3000    1.0514   65.3395 C.3     1  ZINC000057429281    0.1100
      9 C9         -8.2015   -0.0004   66.4142 C.2     1  ZINC000057429281    0.5200
     10 N10        -7.8591    0.3494   67.6699 N.am    1  ZINC000057429281   -0.8500
     11 O11        -8.4304   -1.1615   66.1491 O.2     1  ZINC000057429281   -0.5100
     12 C12        -7.1581    2.0243   65.4825 C.2     1  ZINC000057429281    0.5300
     13 N13        -5.8904    1.6083   65.2917 N.am    1  ZINC000057429281   -0.8400
     14 O14        -7.3798    3.1817   65.7692 O.2     1  ZINC000057429281   -0.5100
     15 C15       -10.6902   -0.6979   60.0341 C.ar    1  ZINC000057429281   -0.0500
     16 C16       -11.9707   -0.3984   59.6080 C.ar    1  ZINC000057429281   -0.1200
     17 C17       -12.5928   -1.2017   58.6706 C.ar    1  ZINC000057429281   -0.0700
     18 C18       -11.9342   -2.3042   58.1590 C.ar    1  ZINC000057429281   -0.1900
     19 C19       -12.6125   -3.1801   57.1374 C.3     1  ZINC000057429281    0.5100
     20 F20       -13.9932   -2.9578   57.1755 F       1  ZINC000057429281   -0.1800
     21 F21       -12.1256   -2.8725   55.8625 F       1  ZINC000057429281   -0.1800
     22 F22       -12.3483   -4.5234   57.4260 F       1  ZINC000057429281   -0.1800
     23 C23       -10.6532   -2.6028   58.5841 C.ar    1  ZINC000057429281   -0.0700
     24 C24       -10.0296   -1.7974   59.5186 C.ar    1  ZINC000057429281   -0.1100
     25 H25        -9.5063    1.7074   59.6257 H       1  ZINC000057429281    0.0600
     26 H26        -8.5042    1.7159   61.0967 H       1  ZINC000057429281    0.0800
     27 H27        -8.2487    0.4684   59.8529 H       1  ZINC000057429281    0.0500
     28 H28        -9.7765   -1.6756   62.1282 H       1  ZINC000057429281    0.1000
     29 H29        -8.2513   -0.8226   61.7904 H       1  ZINC000057429281    0.1000
     30 H30        -7.3813    0.3162   63.5720 H       1  ZINC000057429281    0.4200
     31 H31        -9.2458    1.5842   65.4381 H       1  ZINC000057429281    0.1300
     32 H32        -7.7957   -0.3276   68.3617 H       1  ZINC000057429281    0.4000
     33 H33        -7.6759    1.2780   67.8818 H       1  ZINC000057429281    0.4100
     34 H34        -5.1554    2.2345   65.3838 H       1  ZINC000057429281    0.4000
     35 H35        -5.7131    0.6826   65.0624 H       1  ZINC000057429281    0.4100
     36 H36       -12.4852    0.4629   60.0077 H       1  ZINC000057429281    0.1400
     37 H37       -13.5934   -0.9681   58.3383 H       1  ZINC000057429281    0.1400
     38 H38       -10.1385   -3.4639   58.1841 H       1  ZINC000057429281    0.1400
     39 H39        -9.0288   -2.0307   59.8506 H       1  ZINC000057429281    0.1400
@<TRIPOS>BOND
     1     1     2    1
     2     1    25    1
     3     1    26    1
     4     1    27    1
     5     2     3    1
     6     2     4    1
     7     2    15    1
     8     4     5    1
     9     4    28    1
    10     4    29    1
    11     5     6    2
    12     5     7   am
    13     7     8    1
    14     7    30    1
    15     8     9    1
    16     8    12    1
    17     8    31    1
    18     9    10   am
    19     9    11    2
    20    10    32    1
    21    10    33    1
    22    12    13   am
    23    12    14    2
    24    13    34    1
    25    13    35    1
    26    15    24   ar
    27    15    16   ar
    28    16    17   ar
    29    16    36    1
    30    17    18   ar
    31    17    37    1
    32    18    19    1
    33    18    23   ar
    34    19    20    1
    35    19    21    1
    36    19    22    1
    37    23    24   ar
    38    23    38    1
    39    24    39    1
@<TRIPOS>SUBSTRUCTURE
     1 ZINC000057429281        1 TEMP              0 ****  ****    0 ROOT


##########                                Name:    ZINC000966038509
##########                DOCK_Rotatable_Bonds:                   5
##########                         Heavy_Atoms:                  25
##########                    Molecular_Weight:             346.445
##########                DOCK_Rotatable_Bonds:                   5
##########                       Formal_Charge:           0.0299998
##########                     HBond_Acceptors:                   5
##########                        HBond_Donors:                   1
##########                         Heavy_Atoms:                  25
##########                          Grid_Score:          -28.403114
##########                     Grid_vdw_energy:          -27.502508
##########                      Grid_es_energy:           -0.900606
##########           Internal_energy_repulsive:           19.686037

@<TRIPOS>MOLECULE
ZINC000966038509
 52 54 1 0 0
SMALL
USER_CHARGES


@<TRIPOS>ATOM
      1 C1         -7.4383   -0.0166   51.0612 C.3     1  ZINC000966038509   -0.1200
      2 C2         -8.6133    0.5313   51.8295 C.ar    1  ZINC000966038509   -0.0100
      3 C3         -9.5465   -0.3277   52.3690 C.ar    1  ZINC000966038509   -0.1600
      4 C4        -10.6283    0.1751   53.0757 C.ar    1  ZINC000966038509    0.1300
      5 F5        -11.5404   -0.6713   53.6021 F       1  ZINC000966038509   -0.1300
      6 C6        -10.7772    1.5432   53.2446 C.ar    1  ZINC000966038509   -0.1600
      7 C7         -9.8498    2.4111   52.7092 C.ar    1  ZINC000966038509   -0.0100
      8 C8        -10.0132    3.8979   52.8930 C.3     1  ZINC000966038509   -0.1200
      9 C9         -8.7555    1.9099   52.0010 C.ar    1  ZINC000966038509   -0.1500
     10 C10        -7.7584    2.8352   51.4250 C.2     1  ZINC000966038509    0.5700
     11 O11        -7.8799    3.2234   50.2794 O.2     1  ZINC000966038509   -0.5200
     12 N12        -6.7140    3.2493   52.1696 N.am    1  ZINC000966038509   -0.7100
     13 C13        -5.7262    4.1683   51.5989 C.3     1  ZINC000966038509    0.1300
     14 H14        -6.1129    4.6437   50.6974 H       1  ZINC000966038509    0.1200
     15 C15        -5.2866    5.2276   52.6403 C.3     1  ZINC000966038509    0.0900
     16 N16        -4.2776    4.5447   53.4704 N.am    1  ZINC000966038509   -0.6200
     17 C17        -3.9508    4.8710   54.7366 C.2     1  ZINC000966038509    0.5400
     18 O18        -4.5052    5.7993   55.2859 O.2     1  ZINC000966038509   -0.5300
     19 C19        -2.8965    4.0823   55.4696 C.3     1  ZINC000966038509   -0.1100
     20 C20        -2.5883    4.7331   56.8410 C.3     1  ZINC000966038509   -0.1100
     21 C21        -2.0151    3.5499   57.6598 C.3     1  ZINC000966038509   -0.1200
     22 C22        -2.8641    2.3391   57.2202 C.3     1  ZINC000966038509   -0.1200
     23 C23        -3.4245    2.6776   55.8276 C.3     1  ZINC000966038509   -0.1100
     24 C24        -3.6876    3.4483   52.6885 C.3     1  ZINC000966038509    0.1000
     25 C25        -4.3877    3.4379   51.3120 C.3     1  ZINC000966038509   -0.1100
     26 H26        -3.7992    3.9857   50.5760 H       1  ZINC000966038509    0.1000
     27 C27        -4.6382    2.0033   50.8429 C.3     1  ZINC000966038509   -0.1400
     28 H28        -6.6104   -0.2007   51.7459 H       1  ZINC000966038509    0.0800
     29 H29        -7.7242   -0.9505   50.5772 H       1  ZINC000966038509    0.0800
     30 H30        -7.1305    0.7052   50.3046 H       1  ZINC000966038509    0.0700
     31 H31        -9.4351   -1.3943   52.2408 H       1  ZINC000966038509    0.1400
     32 H32       -11.6215    1.9296   53.7962 H       1  ZINC000966038509    0.1400
     33 H33        -9.5065    4.2089   53.8065 H       1  ZINC000966038509    0.0800
     34 H34        -9.5780    4.4194   52.0405 H       1  ZINC000966038509    0.0700
     35 H35       -11.0734    4.1408   52.9648 H       1  ZINC000966038509    0.0800
     36 H36        -6.6164    2.9386   53.0832 H       1  ZINC000966038509    0.4000
     37 H37        -4.8461    6.0905   52.1409 H       1  ZINC000966038509    0.0800
     38 H38        -6.1357    5.5343   53.2510 H       1  ZINC000966038509    0.0800
     39 H39        -1.9904    4.0075   54.8684 H       1  ZINC000966038509    0.0900
     40 H40        -1.8466    5.5247   56.7350 H       1  ZINC000966038509    0.0700
     41 H41        -3.4997    5.1154   57.3007 H       1  ZINC000966038509    0.0700
     42 H42        -0.9654    3.3890   57.4142 H       1  ZINC000966038509    0.0700
     43 H43        -2.1345    3.7318   58.7279 H       1  ZINC000966038509    0.0700
     44 H44        -2.2410    1.4465   57.1650 H       1  ZINC000966038509    0.0700
     45 H45        -3.6818    2.1813   57.9234 H       1  ZINC000966038509    0.0700
     46 H46        -4.5141    2.6842   55.8551 H       1  ZINC000966038509    0.0800
     47 H47        -3.0733    1.9494   55.0967 H       1  ZINC000966038509    0.0700
     48 H48        -2.6188    3.6185   52.5594 H       1  ZINC000966038509    0.0800
     49 H49        -3.8552    2.4987   53.1966 H       1  ZINC000966038509    0.0700
     50 H50        -5.2525    1.4829   51.5778 H       1  ZINC000966038509    0.0600
     51 H51        -5.1553    2.0199   49.8835 H       1  ZINC000966038509    0.0700
     52 H52        -3.6856    1.4853   50.7334 H       1  ZINC000966038509    0.0700
@<TRIPOS>BOND
     1     1     2    1
     2     1    28    1
     3     1    29    1
     4     1    30    1
     5     2     9   ar
     6     2     3   ar
     7     3     4   ar
     8     3    31    1
     9     4     5    1
    10     4     6   ar
    11     6     7   ar
    12     6    32    1
    13     7     8    1
    14     7     9   ar
    15     8    33    1
    16     8    34    1
    17     8    35    1
    18     9    10    1
    19    10    11    2
    20    10    12   am
    21    12    13    1
    22    12    36    1
    23    13    14    1
    24    13    25    1
    25    13    15    1
    26    15    16    1
    27    15    37    1
    28    15    38    1
    29    16    17   am
    30    16    24    1
    31    17    18    2
    32    17    19    1
    33    19    23    1
    34    19    20    1
    35    19    39    1
    36    20    21    1
    37    20    40    1
    38    20    41    1
    39    21    22    1
    40    21    42    1
    41    21    43    1
    42    22    23    1
    43    22    44    1
    44    22    45    1
    45    23    46    1
    46    23    47    1
    47    24    25    1
    48    24    48    1
    49    24    49    1
    50    25    26    1
    51    25    27    1
    52    27    50    1
    53    27    51    1
    54    27    52    1
@<TRIPOS>SUBSTRUCTURE
     1 ZINC000966038509        1 TEMP              0 ****  ****    0 ROOT


##########                                Name:    ZINC000279331220
##########                DOCK_Rotatable_Bonds:                   9
##########                         Heavy_Atoms:                  24
##########                    Molecular_Weight:             328.411
##########                DOCK_Rotatable_Bonds:                   9
##########                       Formal_Charge:          -0.0100001
##########                     HBond_Acceptors:                   5
##########                        HBond_Donors:                   0
##########                         Heavy_Atoms:                  24
##########                          Grid_Score:          -28.400448
##########                     Grid_vdw_energy:          -28.473257
##########                      Grid_es_energy:            0.072809
##########           Internal_energy_repulsive:           21.606882

@<TRIPOS>MOLECULE
ZINC000279331220
 48 49 1 0 0
SMALL
USER_CHARGES


@<TRIPOS>ATOM
      1 C1          3.1640    0.7911   49.2808 C.3     1  ZINC000279331220   -0.1500
      2 C2          2.9004    1.4756   50.6235 C.3     1  ZINC000279331220    0.0500
      3 O3          1.5137    1.8052   50.7259 O.3     1  ZINC000279331220   -0.3000
      4 C4          1.1088    2.4243   51.8670 C.ar    1  ZINC000279331220    0.1000
      5 C5          2.0259    2.7073   52.8660 C.ar    1  ZINC000279331220   -0.1700
      6 C6          1.6126    3.3372   54.0256 C.ar    1  ZINC000279331220   -0.1200
      7 C7          0.2854    3.6855   54.1912 C.ar    1  ZINC000279331220   -0.1200
      8 C8         -0.6353    3.4054   53.1981 C.ar    1  ZINC000279331220   -0.1700
      9 C9         -0.2268    2.7802   52.0314 C.ar    1  ZINC000279331220    0.1000
     10 O10        -1.1309    2.5040   51.0538 O.3     1  ZINC000279331220   -0.3000
     11 C11        -2.4940    2.8434   51.3160 C.3     1  ZINC000279331220    0.0600
     12 C12        -3.3426    2.5374   50.0803 C.3     1  ZINC000279331220   -0.1100
     13 C13        -4.8078    2.8660   50.3736 C.3     1  ZINC000279331220   -0.1300
     14 C14        -5.4695    1.6770   51.0210 C.2     1  ZINC000279331220    0.5200
     15 O15        -4.8158    0.6921   51.2919 O.2     1  ZINC000279331220   -0.5200
     16 N16        -6.7879    1.7080   51.2991 N.am    1  ZINC000279331220   -0.5700
     17 C17        -7.4307    0.5527   51.9302 C.3     1  ZINC000279331220    0.0800
     18 C18        -7.5399    2.8394   50.9863 C.ar    1  ZINC000279331220    0.3400
     19 N19        -8.0807    2.9555   49.7840 N.ar    1  ZINC000279331220   -0.4800
     20 C20        -8.7992    4.0095   49.4472 C.ar    1  ZINC000279331220    0.1100
     21 C21        -9.0137    5.0364   50.3449 C.ar    1  ZINC000279331220   -0.1600
     22 C22        -8.4636    4.9531   51.6170 C.ar    1  ZINC000279331220   -0.0700
     23 C23        -7.7196    3.8329   51.9424 C.ar    1  ZINC000279331220   -0.1200
     24 C24        -7.1029    3.6967   53.3106 C.3     1  ZINC000279331220   -0.1100
     25 H25         4.2217    0.5396   49.2027 H       1  ZINC000279331220    0.0800
     26 H26         2.5682   -0.1192   49.2139 H       1  ZINC000279331220    0.0700
     27 H27         2.8900    1.4652   48.4693 H       1  ZINC000279331220    0.0700
     28 H28         3.1744    0.8015   51.4350 H       1  ZINC000279331220    0.0600
     29 H29         3.4962    2.3860   50.6905 H       1  ZINC000279331220    0.0600
     30 H30         3.0634    2.4357   52.7393 H       1  ZINC000279331220    0.1300
     31 H31         2.3285    3.5574   54.8037 H       1  ZINC000279331220    0.1300
     32 H32        -0.0335    4.1771   55.0985 H       1  ZINC000279331220    0.1300
     33 H33        -1.6719    3.6780   53.3303 H       1  ZINC000279331220    0.1300
     34 H34        -2.8580    2.2585   52.1608 H       1  ZINC000279331220    0.0600
     35 H35        -2.5652    3.9052   51.5518 H       1  ZINC000279331220    0.0600
     36 H36        -2.9954    3.1417   49.2423 H       1  ZINC000279331220    0.0800
     37 H37        -3.2506    1.4807   49.8290 H       1  ZINC000279331220    0.0800
     38 H38        -4.8605    3.7222   51.0462 H       1  ZINC000279331220    0.1000
     39 H39        -5.3203    3.1042   49.4415 H       1  ZINC000279331220    0.1000
     40 H40        -7.3038    0.6117   53.0112 H       1  ZINC000279331220    0.0700
     41 H41        -8.4937    0.5514   51.6888 H       1  ZINC000279331220    0.0800
     42 H42        -6.9730   -0.3648   51.5603 H       1  ZINC000279331220    0.0800
     43 H43        -9.2248    4.0700   48.4565 H       1  ZINC000279331220    0.1600
     44 H44        -9.6030    5.8956   50.0604 H       1  ZINC000279331220    0.1400
     45 H45        -8.6166    5.7429   52.3375 H       1  ZINC000279331220    0.1400
     46 H46        -7.7670    3.1178   53.9526 H       1  ZINC000279331220    0.0800
     47 H47        -6.1429    3.1871   53.2273 H       1  ZINC000279331220    0.0700
     48 H48        -6.9527    4.6865   53.7416 H       1  ZINC000279331220    0.0700
@<TRIPOS>BOND
     1     1     2    1
     2     1    25    1
     3     1    26    1
     4     1    27    1
     5     2     3    1
     6     2    28    1
     7     2    29    1
     8     3     4    1
     9     4     9   ar
    10     4     5   ar
    11     5     6   ar
    12     5    30    1
    13     6     7   ar
    14     6    31    1
    15     7     8   ar
    16     7    32    1
    17     8     9   ar
    18     8    33    1
    19     9    10    1
    20    10    11    1
    21    11    12    1
    22    11    34    1
    23    11    35    1
    24    12    13    1
    25    12    36    1
    26    12    37    1
    27    13    14    1
    28    13    38    1
    29    13    39    1
    30    14    15    2
    31    14    16   am
    32    16    17    1
    33    16    18    1
    34    17    40    1
    35    17    41    1
    36    17    42    1
    37    18    23   ar
    38    18    19   ar
    39    19    20   ar
    40    20    21   ar
    41    20    43    1
    42    21    22   ar
    43    21    44    1
    44    22    23   ar
    45    22    45    1
    46    23    24    1
    47    24    46    1
    48    24    47    1
    49    24    48    1
@<TRIPOS>SUBSTRUCTURE
     1 ZINC000279331220        1 TEMP              0 ****  ****    0 ROOT


##########                                Name:    ZINC000463741321
##########                DOCK_Rotatable_Bonds:                   7
##########                         Heavy_Atoms:                  26
##########                    Molecular_Weight:             354.467
##########                DOCK_Rotatable_Bonds:                   7
##########                       Formal_Charge:         -6.4075e-07
##########                     HBond_Acceptors:                   4
##########                        HBond_Donors:                   1
##########                         Heavy_Atoms:                  26
##########                          Grid_Score:          -28.398180
##########                     Grid_vdw_energy:          -27.664963
##########                      Grid_es_energy:           -0.733217
##########           Internal_energy_repulsive:           13.565669

@<TRIPOS>MOLECULE
ZINC000463741321
 53 55 1 0 0
SMALL
USER_CHARGES


@<TRIPOS>ATOM
      1 C1         -7.8236    4.2858   58.0527 C.3     1  ZINC000463741321   -0.1500
      2 C2         -8.4521    3.3198   57.0463 C.3     1  ZINC000463741321   -0.1100
      3 H3         -9.4473    3.6732   56.7762 H       1  ZINC000463741321    0.1000
      4 C4         -7.5781    3.2496   55.7925 C.3     1  ZINC000463741321   -0.0900
      5 C5         -8.2917    2.4257   54.7188 C.3     1  ZINC000463741321   -0.0800
      6 C6         -7.3293    2.1153   53.6015 C.ar    1  ZINC000463741321   -0.1200
      7 C7         -6.2769    2.9711   53.3382 C.ar    1  ZINC000463741321   -0.0900
      8 C8         -5.3936    2.6867   52.3131 C.ar    1  ZINC000463741321   -0.1300
      9 C9         -5.5626    1.5463   51.5504 C.ar    1  ZINC000463741321   -0.1000
     10 C10        -6.6148    0.6891   51.8117 C.ar    1  ZINC000463741321   -0.1500
     11 C11        -7.4958    0.9694   52.8420 C.ar    1  ZINC000463741321    0.1000
     12 F12        -8.5247    0.1321   53.0983 F       1  ZINC000463741321   -0.1400
     13 C13        -8.5564    1.9489   57.6634 C.2     1  ZINC000463741321    0.5200
     14 O14        -7.5585    1.2782   57.8229 O.2     1  ZINC000463741321   -0.5300
     15 N15        -9.7584    1.4681   58.0381 N.am    1  ZINC000463741321   -0.7300
     16 C16        -9.8599    0.1347   58.6365 C.3     1  ZINC000463741321    0.1500
     17 H17        -9.0370   -0.4864   58.2829 H       1  ZINC000463741321    0.1000
     18 C18        -9.7927    0.2524   60.1617 C.3     1  ZINC000463741321   -0.1300
     19 C19        -9.9597   -1.1381   60.7807 C.3     1  ZINC000463741321   -0.1200
     20 C20       -11.2888   -1.7404   60.3193 C.3     1  ZINC000463741321    0.0600
     21 N21       -11.3032   -1.8325   58.8537 N.3     1  ZINC000463741321   -0.4800
     22 C22       -12.4462   -2.4983   58.4053 C.ar    1  ZINC000463741321    0.1100
     23 C23       -13.7068   -2.0201   58.7401 C.ar    1  ZINC000463741321   -0.1700
     24 C24       -14.8349   -2.6804   58.2946 C.ar    1  ZINC000463741321   -0.0900
     25 C25       -14.7107   -3.8169   57.5166 C.ar    1  ZINC000463741321   -0.1500
     26 C26       -13.4574   -4.2956   57.1814 C.ar    1  ZINC000463741321   -0.0900
     27 C27       -12.3251   -3.6369   57.6188 C.ar    1  ZINC000463741321   -0.1400
     28 C28       -11.1914   -0.5048   58.2363 C.3     1  ZINC000463741321    0.0500
     29 H29        -6.8285    3.9323   58.3228 H       1  ZINC000463741321    0.0600
     30 H30        -7.7484    5.2773   57.6063 H       1  ZINC000463741321    0.0700
     31 H31        -8.4463    4.3358   58.9459 H       1  ZINC000463741321    0.0600
     32 H32        -7.3989    4.2574   55.4176 H       1  ZINC000463741321    0.0700
     33 H33        -6.6263    2.7791   56.0390 H       1  ZINC000463741321    0.0700
     34 H34        -8.6534    1.4949   55.1558 H       1  ZINC000463741321    0.0800
     35 H35        -9.1344    2.9938   54.3251 H       1  ZINC000463741321    0.0800
     36 H36        -6.1444    3.8627   53.9329 H       1  ZINC000463741321    0.1300
     37 H37        -4.5714    3.3562   52.1080 H       1  ZINC000463741321    0.1300
     38 H38        -4.8722    1.3253   50.7496 H       1  ZINC000463741321    0.1300
     39 H39        -6.7469   -0.2015   51.2151 H       1  ZINC000463741321    0.1400
     40 H40       -10.5563    2.0050   57.9117 H       1  ZINC000463741321    0.4000
     41 H41        -8.8278    0.6673   60.4529 H       1  ZINC000463741321    0.0700
     42 H42       -10.5919    0.9055   60.5122 H       1  ZINC000463741321    0.0600
     43 H43        -9.1388   -1.7798   60.4609 H       1  ZINC000463741321    0.0800
     44 H44        -9.9556   -1.0554   61.8676 H       1  ZINC000463741321    0.0800
     45 H45       -11.4041   -2.7363   60.7469 H       1  ZINC000463741321    0.0900
     46 H46       -12.1101   -1.1054   60.6514 H       1  ZINC000463741321    0.0500
     47 H47       -13.8044   -1.1330   59.3484 H       1  ZINC000463741321    0.1200
     48 H48       -15.8151   -2.3092   58.5546 H       1  ZINC000463741321    0.1200
     49 H49       -15.5945   -4.3318   57.1701 H       1  ZINC000463741321    0.1200
     50 H50       -13.3639   -5.1835   56.5736 H       1  ZINC000463741321    0.1200
     51 H51       -11.3466   -4.0111   57.3565 H       1  ZINC000463741321    0.1300
     52 H52       -12.0129    0.1249   58.5779 H       1  ZINC000463741321    0.0500
     53 H53       -11.2363   -0.6037   57.1517 H       1  ZINC000463741321    0.0900
@<TRIPOS>BOND
     1     1     2    1
     2     1    29    1
     3     1    30    1
     4     1    31    1
     5     2     3    1
     6     2     4    1
     7     2    13    1
     8     4     5    1
     9     4    32    1
    10     4    33    1
    11     5     6    1
    12     5    34    1
    13     5    35    1
    14     6    11   ar
    15     6     7   ar
    16     7     8   ar
    17     7    36    1
    18     8     9   ar
    19     8    37    1
    20     9    10   ar
    21     9    38    1
    22    10    11   ar
    23    10    39    1
    24    11    12    1
    25    13    14    2
    26    13    15   am
    27    15    16    1
    28    15    40    1
    29    16    17    1
    30    16    28    1
    31    16    18    1
    32    18    19    1
    33    18    41    1
    34    18    42    1
    35    19    20    1
    36    19    43    1
    37    19    44    1
    38    20    21    1
    39    20    45    1
    40    20    46    1
    41    21    22    1
    42    21    28    1
    43    22    27   ar
    44    22    23   ar
    45    23    24   ar
    46    23    47    1
    47    24    25   ar
    48    24    48    1
    49    25    26   ar
    50    25    49    1
    51    26    27   ar
    52    26    50    1
    53    27    51    1
    54    28    52    1
    55    28    53    1
@<TRIPOS>SUBSTRUCTURE
     1 ZINC000463741321        1 TEMP              0 ****  ****    0 ROOT


##########                                Name:    ZINC000028372981
##########                DOCK_Rotatable_Bonds:                   7
##########                         Heavy_Atoms:                  28
##########                    Molecular_Weight:             380.443
##########                DOCK_Rotatable_Bonds:                   7
##########                       Formal_Charge:         1.78814e-07
##########                     HBond_Acceptors:                   6
##########                        HBond_Donors:                   1
##########                         Heavy_Atoms:                  28
##########                          Grid_Score:          -28.382843
##########                     Grid_vdw_energy:          -27.288126
##########                      Grid_es_energy:           -1.094717
##########           Internal_energy_repulsive:           17.589273

@<TRIPOS>MOLECULE
ZINC000028372981
 52 54 1 0 0
SMALL
USER_CHARGES


@<TRIPOS>ATOM
      1 C1         -9.2614    0.7900   67.3327 C.3     1  ZINC000028372981   -0.1800
      2 C2         -8.9437    0.3725   65.9200 C.2     1  ZINC000028372981    0.5200
      3 O3         -7.9988   -0.3554   65.7008 O.2     1  ZINC000028372981   -0.5100
      4 N4         -9.7096    0.8081   64.9002 N.am    1  ZINC000028372981   -0.5500
      5 C5        -10.8737    1.6864   65.0415 C.3     1  ZINC000028372981    0.1000
      6 C6        -11.4002    1.8921   63.6118 C.3     1  ZINC000028372981   -0.0900
      7 C7        -10.4605    1.0865   62.7425 C.ar    1  ZINC000028372981   -0.1500
      8 C8        -10.4336    0.8982   61.3788 C.ar    1  ZINC000028372981    0.0000
      9 C9         -9.4489    0.0897   60.8037 C.ar    1  ZINC000028372981   -0.1600
     10 C10        -9.4185   -0.1196   59.3443 C.2     1  ZINC000028372981    0.5200
     11 O11        -8.4267    0.1781   58.7085 O.2     1  ZINC000028372981   -0.5000
     12 O12       -10.4904   -0.6408   58.7159 O.3     1  ZINC000028372981   -0.3200
     13 C13       -11.0927   -1.8214   59.3089 C.3     1  ZINC000028372981    0.0700
     14 H14       -10.9296   -1.8101   60.3866 H       1  ZINC000028372981    0.1200
     15 C15       -10.4537   -3.0758   58.7096 C.3     1  ZINC000028372981   -0.1700
     16 C16       -12.5727   -1.8268   59.0249 C.2     1  ZINC000028372981    0.5200
     17 O17       -13.0931   -2.8079   58.5375 O.2     1  ZINC000028372981   -0.4900
     18 N18       -13.3181   -0.7414   59.3126 N.am    1  ZINC000028372981   -0.6600
     19 C19       -14.6923   -0.7464   59.0490 C.ar    1  ZINC000028372981    0.1500
     20 C20       -15.1926   -0.0591   57.9511 C.ar    1  ZINC000028372981   -0.1300
     21 C21       -16.5496   -0.0664   57.6932 C.ar    1  ZINC000028372981   -0.1000
     22 C22       -17.4093   -0.7577   58.5267 C.ar    1  ZINC000028372981   -0.1300
     23 C23       -16.9142   -1.4436   59.6208 C.ar    1  ZINC000028372981   -0.0700
     24 C24       -17.8548   -2.1960   60.5262 C.3     1  ZINC000028372981   -0.1200
     25 C25       -15.5587   -1.4394   59.8846 C.ar    1  ZINC000028372981   -0.1200
     26 C26       -15.0201   -2.1863   61.0774 C.3     1  ZINC000028372981   -0.1200
     27 C27        -8.4896   -0.5142   61.6217 C.ar    1  ZINC000028372981   -0.0200
     28 C28        -8.5209   -0.3165   62.9809 C.ar    1  ZINC000028372981   -0.1800
     29 C29        -9.5090    0.4881   63.5587 C.ar    1  ZINC000028372981    0.1900
     30 H30       -10.2645    0.4532   67.5943 H       1  ZINC000028372981    0.1000
     31 H31        -8.5385    0.3428   68.0151 H       1  ZINC000028372981    0.1000
     32 H32        -9.2110    1.8761   67.4107 H       1  ZINC000028372981    0.1000
     33 H33       -11.6345    1.2092   65.6594 H       1  ZINC000028372981    0.0900
     34 H34       -10.5767    2.6408   65.4761 H       1  ZINC000028372981    0.0900
     35 H35       -12.4187    1.5139   63.5233 H       1  ZINC000028372981    0.1000
     36 H36       -11.3620    2.9472   63.3405 H       1  ZINC000028372981    0.1000
     37 H37       -11.1760    1.3718   60.7537 H       1  ZINC000028372981    0.1400
     38 H38       -10.6168   -3.0870   57.6319 H       1  ZINC000028372981    0.0800
     39 H39        -9.3833   -3.0718   58.9150 H       1  ZINC000028372981    0.0800
     40 H40       -10.9059   -3.9620   59.1547 H       1  ZINC000028372981    0.0800
     41 H41       -12.9019    0.0433   59.7024 H       1  ZINC000028372981    0.4100
     42 H42       -14.5208    0.4770   57.2969 H       1  ZINC000028372981    0.1400
     43 H43       -16.9393    0.4680   56.8395 H       1  ZINC000028372981    0.1300
     44 H44       -18.4700   -0.7621   58.3228 H       1  ZINC000028372981    0.1200
     45 H45       -17.9667   -3.2185   60.1653 H       1  ZINC000028372981    0.0700
     46 H46       -17.4510   -2.2103   61.5386 H       1  ZINC000028372981    0.0700
     47 H47       -18.8273   -1.7036   60.5299 H       1  ZINC000028372981    0.0700
     48 H48       -14.7749   -3.2077   60.7863 H       1  ZINC000028372981    0.0700
     49 H49       -14.1226   -1.6876   61.4435 H       1  ZINC000028372981    0.0600
     50 H50       -15.7730   -2.2039   61.8654 H       1  ZINC000028372981    0.0800
     51 H51        -7.7229   -1.1367   61.1846 H       1  ZINC000028372981    0.1500
     52 H52        -7.7774   -0.7859   63.6081 H       1  ZINC000028372981    0.1500
@<TRIPOS>BOND
     1     1     2    1
     2     1    30    1
     3     1    31    1
     4     1    32    1
     5     2     3    2
     6     2     4   am
     7     4    29    1
     8     4     5    1
     9     5     6    1
    10     5    33    1
    11     5    34    1
    12     6     7    1
    13     6    35    1
    14     6    36    1
    15     7    29   ar
    16     7     8   ar
    17     8     9   ar
    18     8    37    1
    19     9    10    1
    20     9    27   ar
    21    10    11    2
    22    10    12    1
    23    12    13    1
    24    13    14    1
    25    13    15    1
    26    13    16    1
    27    15    38    1
    28    15    39    1
    29    15    40    1
    30    16    17    2
    31    16    18   am
    32    18    19    1
    33    18    41    1
    34    19    25   ar
    35    19    20   ar
    36    20    21   ar
    37    20    42    1
    38    21    22   ar
    39    21    43    1
    40    22    23   ar
    41    22    44    1
    42    23    24    1
    43    23    25   ar
    44    24    45    1
    45    24    46    1
    46    24    47    1
    47    25    26    1
    48    26    48    1
    49    26    49    1
    50    26    50    1
    51    27    28   ar
    52    27    51    1
    53    28    29   ar
    54    28    52    1
@<TRIPOS>SUBSTRUCTURE
     1 ZINC000028372981        1 TEMP              0 ****  ****    0 ROOT


##########                                Name:    ZINC000543625960
##########                DOCK_Rotatable_Bonds:                   8
##########                         Heavy_Atoms:                  29
##########                    Molecular_Weight:             416.544
##########                DOCK_Rotatable_Bonds:                   8
##########                       Formal_Charge:           -0.010001
##########                     HBond_Acceptors:                   8
##########                        HBond_Donors:                   2
##########                         Heavy_Atoms:                  29
##########                          Grid_Score:          -28.354176
##########                     Grid_vdw_energy:          -27.163855
##########                      Grid_es_energy:           -1.190320
##########           Internal_energy_repulsive:           14.372330

@<TRIPOS>MOLECULE
ZINC000543625960
 57 59 1 0 0
SMALL
USER_CHARGES


@<TRIPOS>ATOM
      1 C1         -9.8738    0.3148   62.1599 C.3     1  ZINC000543625960   -0.1500
      2 C2        -10.4722    0.8160   60.8440 C.3     1  ZINC000543625960   -0.1300
      3 C3        -11.9811    1.0072   61.0101 C.3     1  ZINC000543625960    0.1500
      4 H4        -12.4459    1.0994   60.0285 H       1  ZINC000543625960    0.0800
      5 C5        -12.2482    2.2761   61.8221 C.3     1  ZINC000543625960   -0.1700
      6 N6        -12.5457   -0.1488   61.7110 N.am    1  ZINC000543625960   -1.1100
      7 S7        -13.5311   -1.2066   60.9035 S.o2    1  ZINC000543625960    2.7000
      8 O8        -13.7849   -2.2812   61.7979 O.2     1  ZINC000543625960   -0.9600
      9 O9        -14.5619   -0.4253   60.3151 O.2     1  ZINC000543625960   -0.9500
     10 C10       -12.5942   -1.8788   59.5712 C.ar    1  ZINC000543625960   -0.6600
     11 C11       -11.4719   -2.6428   59.8327 C.ar    1  ZINC000543625960   -0.0400
     12 C12       -10.7337   -3.1722   58.7898 C.ar    1  ZINC000543625960   -0.1200
     13 C13       -11.1158   -2.9390   57.4834 C.ar    1  ZINC000543625960   -0.0600
     14 C14       -12.2429   -2.1723   57.2174 C.ar    1  ZINC000543625960    0.1500
     15 N15       -12.6328   -1.9341   55.8946 N.am    1  ZINC000543625960   -0.6800
     16 C16       -12.0859   -0.9140   55.2042 C.2     1  ZINC000543625960    0.7200
     17 O17       -11.2538   -0.2007   55.7306 O.2     1  ZINC000543625960   -0.5600
     18 N18       -12.4614   -0.6845   53.9302 N.am    1  ZINC000543625960   -0.6300
     19 C19       -13.4548   -1.4677   53.1731 C.3     1  ZINC000543625960    0.0900
     20 C20       -13.9748   -0.4991   52.0816 C.3     1  ZINC000543625960   -0.1000
     21 H21       -14.3589   -1.0489   51.2223 H       1  ZINC000543625960    0.1000
     22 C22       -15.0396    0.4431   52.6467 C.3     1  ZINC000543625960   -0.1500
     23 C23       -12.6831    0.2774   51.7131 C.3     1  ZINC000543625960   -0.1200
     24 C24       -11.9528    0.3919   53.0677 C.3     1  ZINC000543625960    0.2000
     25 H25       -12.1579    1.3629   53.5184 H       1  ZINC000543625960    0.0900
     26 C26       -10.4689    0.2240   52.8658 C.ar    1  ZINC000543625960   -0.1400
     27 C27        -9.5913    1.2295   53.2402 C.ar    1  ZINC000543625960   -0.0600
     28 C28        -8.2341    1.0310   53.0360 C.ar    1  ZINC000543625960   -0.1700
     29 C29        -7.8046   -0.1541   52.4700 C.ar    1  ZINC000543625960    0.1000
     30 N30        -8.6685   -1.0893   52.1258 N.ar    1  ZINC000543625960   -0.4800
     31 C31        -9.9652   -0.9372   52.3100 C.ar    1  ZINC000543625960    0.1200
     32 C32       -12.9848   -1.6466   58.2667 C.ar    1  ZINC000543625960   -0.0500
     33 H33        -8.7988    0.1785   62.0415 H       1  ZINC000543625960    0.0600
     34 H34       -10.0631    1.0450   62.9467 H       1  ZINC000543625960    0.0600
     35 H35       -10.3331   -0.6365   62.4289 H       1  ZINC000543625960    0.0500
     36 H36       -10.0129    1.7672   60.5750 H       1  ZINC000543625960    0.0700
     37 H37       -10.2829    0.0858   60.0573 H       1  ZINC000543625960    0.0800
     38 H38       -11.8282    3.1362   61.3006 H       1  ZINC000543625960    0.0700
     39 H39       -13.3231    2.4123   61.9404 H       1  ZINC000543625960    0.0700
     40 H40       -11.7834    2.1839   62.8037 H       1  ZINC000543625960    0.0600
     41 H41       -12.3422   -0.2946   62.6482 H       1  ZINC000543625960    0.4200
     42 H42       -11.1707   -2.8263   60.8534 H       1  ZINC000543625960    0.1400
     43 H43        -9.8574   -3.7682   58.9973 H       1  ZINC000543625960    0.1400
     44 H44       -10.5386   -3.3520   56.6694 H       1  ZINC000543625960    0.1400
     45 H45       -13.2966   -2.5032   55.4746 H       1  ZINC000543625960    0.4100
     46 H46       -12.9833   -2.3372   52.7151 H       1  ZINC000543625960    0.0700
     47 H47       -14.2711   -1.7773   53.8256 H       1  ZINC000543625960    0.0800
     48 H48       -14.6187    1.0113   53.4762 H       1  ZINC000543625960    0.0600
     49 H49       -15.3689    1.1291   51.8662 H       1  ZINC000543625960    0.0600
     50 H50       -15.8900   -0.1400   53.0003 H       1  ZINC000543625960    0.0600
     51 H51       -12.0862   -0.2855   50.9955 H       1  ZINC000543625960    0.0800
     52 H52       -12.9254    1.2661   51.3234 H       1  ZINC000543625960    0.0900
     53 H53        -9.9558    2.1460   53.6802 H       1  ZINC000543625960    0.1300
     54 H54        -7.5218    1.7932   53.3154 H       1  ZINC000543625960    0.1400
     55 H55        -6.7493   -0.3163   52.3073 H       1  ZINC000543625960    0.1600
     56 H56       -10.6423   -1.7254   52.0154 H       1  ZINC000543625960    0.1400
     57 H57       -13.8618   -1.0500   58.0632 H       1  ZINC000543625960    0.1400
@<TRIPOS>BOND
     1     1     2    1
     2     1    33    1
     3     1    34    1
     4     1    35    1
     5     2     3    1
     6     2    36    1
     7     2    37    1
     8     3     4    1
     9     3     5    1
    10     3     6    1
    11     5    38    1
    12     5    39    1
    13     5    40    1
    14     6     7   am
    15     6    41    1
    16     7     8    2
    17     7     9    2
    18     7    10    1
    19    10    32   ar
    20    10    11   ar
    21    11    12   ar
    22    11    42    1
    23    12    13   ar
    24    12    43    1
    25    13    14   ar
    26    13    44    1
    27    14    15    1
    28    14    32   ar
    29    15    16   am
    30    15    45    1
    31    16    17    2
    32    16    18   am
    33    18    24    1
    34    18    19    1
    35    19    20    1
    36    19    46    1
    37    19    47    1
    38    20    21    1
    39    20    22    1
    40    20    23    1
    41    22    48    1
    42    22    49    1
    43    22    50    1
    44    23    24    1
    45    23    51    1
    46    23    52    1
    47    24    25    1
    48    24    26    1
    49    26    31   ar
    50    26    27   ar
    51    27    28   ar
    52    27    53    1
    53    28    29   ar
    54    28    54    1
    55    29    30   ar
    56    29    55    1
    57    30    31   ar
    58    31    56    1
    59    32    57    1
@<TRIPOS>SUBSTRUCTURE
     1 ZINC000543625960        1 TEMP              0 ****  ****    0 ROOT


##########                                Name:    ZINC000350493047
##########                DOCK_Rotatable_Bonds:                   7
##########                         Heavy_Atoms:                  24
##########                    Molecular_Weight:             330.387
##########                DOCK_Rotatable_Bonds:                   7
##########                       Formal_Charge:          -0.0300002
##########                     HBond_Acceptors:                   7
##########                        HBond_Donors:                   3
##########                         Heavy_Atoms:                  24
##########                          Grid_Score:          -28.352297
##########                     Grid_vdw_energy:          -28.486166
##########                      Grid_es_energy:            0.133870
##########           Internal_energy_repulsive:            5.160357

@<TRIPOS>MOLECULE
ZINC000350493047
 46 48 1 0 0
SMALL
USER_CHARGES


@<TRIPOS>ATOM
      1 C1         -9.3759    2.7398   64.8386 C.3     1  <0>        -0.1600
      2 C2         -9.0798    1.2645   65.1152 C.3     1  <0>         0.2600
      3 H3         -9.8676    0.8472   65.7423 H       1  <0>         0.1200
      4 N4         -7.7926    1.1456   65.8045 N.am    1  <0>        -0.7400
      5 C5         -7.6035    0.1707   66.7156 C.2     1  <0>         0.7100
      6 N6         -6.4187    0.0603   67.3486 N.am    1  <0>        -0.8600
      7 O7         -8.5017   -0.6094   66.9666 O.2     1  <0>        -0.5900
      8 C8         -9.0230    0.5105   63.8116 C.2     1  <0>         0.1700
      9 N9         -7.9469    0.1961   63.1529 N.2     1  <0>        -0.3800
     10 O10        -8.2299   -0.4105   62.1414 O.3     1  <0>         0.0900
     11 C11        -9.5624   -0.5468   62.0536 C.2     1  <0>         0.2400
     12 C12       -10.3108   -1.2223   60.9748 C.ar    1  <0>        -0.0800
     13 C13        -9.6248   -1.9117   59.9722 C.ar    1  <0>        -0.0200
     14 C14       -10.3267   -2.5407   58.9674 C.ar    1  <0>        -0.2200
     15 C15       -11.7152   -2.4896   58.9502 C.ar    1  <0>         0.1700
     16 O16       -12.4032   -3.1104   57.9580 O.3     1  <0>        -0.3000
     17 C17       -13.0473   -2.2749   56.9940 C.3     1  <0>         0.0800
     18 C18       -12.0072   -1.7370   56.0094 C.3     1  <0>        -0.1500
     19 C19       -12.6968   -0.8425   54.9773 C.3     1  <0>        -0.1200
     20 C20       -13.7459   -1.6561   54.2170 C.3     1  <0>        -0.1300
     21 C21       -14.7860   -2.1942   55.2016 C.3     1  <0>        -0.1200
     22 C22       -14.0964   -3.0887   56.2337 C.3     1  <0>        -0.1200
     23 C23       -12.4012   -1.8052   59.9460 C.ar    1  <0>        -0.1600
     24 C24       -11.7069   -1.1786   60.9575 C.ar    1  <0>        -0.0300
     25 N25       -10.0737    0.0373   63.1237 N.2     1  <0>        -0.4700
     26 H26        -8.5881    3.1571   64.2115 H       1  <0>         0.0600
     27 H27       -10.3336    2.8283   64.3257 H       1  <0>         0.0700
     28 H28        -9.4169    3.2851   65.7814 H       1  <0>         0.0800
     29 H29        -7.0763    1.7686   65.6051 H       1  <0>         0.4000
     30 H30        -6.2824   -0.6421   68.0034 H       1  <0>         0.4000
     31 H31        -5.7024    0.6833   67.1493 H       1  <0>         0.4200
     32 H32        -8.5456   -1.9513   59.9844 H       1  <0>         0.1400
     33 H33        -9.7971   -3.0739   58.1918 H       1  <0>         0.1400
     34 H34       -13.5322   -1.4412   57.5020 H       1  <0>         0.0800
     35 H35       -11.2598   -1.1572   56.5511 H       1  <0>         0.0700
     36 H36       -11.5223   -2.5707   55.5015 H       1  <0>         0.0800
     37 H37       -13.1817   -0.0088   55.4852 H       1  <0>         0.0600
     38 H38       -11.9558   -0.4591   54.2758 H       1  <0>         0.0700
     39 H39       -14.2372   -1.0189   53.4816 H       1  <0>         0.0700
     40 H40       -13.2611   -2.4899   53.7090 H       1  <0>         0.0700
     41 H41       -15.2708   -1.3605   55.7096 H       1  <0>         0.0700
     42 H42       -15.5334   -2.7740   54.6599 H       1  <0>         0.0700
     43 H43       -13.6116   -3.9224   55.7258 H       1  <0>         0.0800
     44 H44       -14.8374   -3.4720   56.9352 H       1  <0>         0.0700
     45 H45       -13.4805   -1.7681   59.9293 H       1  <0>         0.1400
     46 H46       -12.2409   -0.6471   61.7313 H       1  <0>         0.1400
@<TRIPOS>BOND
     1     1     2    1
     2     1    26    1
     3     1    27    1
     4     1    28    1
     5     2     3    1
     6     2     4    1
     7     2     8    1
     8     4     5   am
     9     4    29    1
    10     5     6   am
    11     5     7    2
    12     6    30    1
    13     6    31    1
    14     8    25    1
    15     8     9    2
    16     9    10    1
    17    10    11    1
    18    11    12    1
    19    11    25    2
    20    12    24   ar
    21    12    13   ar
    22    13    14   ar
    23    13    32    1
    24    14    15   ar
    25    14    33    1
    26    15    16    1
    27    15    23   ar
    28    16    17    1
    29    17    22    1
    30    17    18    1
    31    17    34    1
    32    18    19    1
    33    18    35    1
    34    18    36    1
    35    19    20    1
    36    19    37    1
    37    19    38    1
    38    20    21    1
    39    20    39    1
    40    20    40    1
    41    21    22    1
    42    21    41    1
    43    21    42    1
    44    22    43    1
    45    22    44    1
    46    23    24   ar
    47    23    45    1
    48    24    46    1
@<TRIPOS>SUBSTRUCTURE
     1 <0>         1 TEMP              0 ****  ****    0 ROOT


##########                                Name:    ZINC000530457945
##########                DOCK_Rotatable_Bonds:                   4
##########                         Heavy_Atoms:                  25
##########                    Molecular_Weight:             355.827
##########                DOCK_Rotatable_Bonds:                   4
##########                       Formal_Charge:           0.0199997
##########                     HBond_Acceptors:                   7
##########                        HBond_Donors:                   1
##########                         Heavy_Atoms:                  25
##########                          Grid_Score:          -28.347305
##########                     Grid_vdw_energy:          -28.825428
##########                      Grid_es_energy:            0.478123
##########           Internal_energy_repulsive:           38.918030

@<TRIPOS>MOLECULE
ZINC000530457945
 43 46 1 0 0
SMALL
USER_CHARGES


@<TRIPOS>ATOM
      1 C1         -2.2237    2.3841   50.3666 C.3     1  ZINC000530457945   -0.1700
      2 C2         -2.7611    3.0687   51.6250 C.3     1  ZINC000530457945    0.0900
      3 H3         -3.1345    2.3199   52.3235 H       1  ZINC000530457945    0.1100
      4 C4         -3.8941    4.0461   51.2476 C.3     1  ZINC000530457945   -0.1200
      5 H5         -3.8057    4.3550   50.2061 H       1  ZINC000530457945    0.1100
      6 C6         -5.2423    3.4233   51.5040 C.2     1  ZINC000530457945    0.5300
      7 O7         -6.1889    4.1241   51.7930 O.2     1  ZINC000530457945   -0.4700
      8 N8         -5.3958    2.0874   51.4121 N.am    1  ZINC000530457945   -0.6200
      9 C9         -6.6448    1.5100   51.6513 C.2     1  ZINC000530457945    0.4800
     10 N10        -6.8784    0.2173   51.7528 N.2     1  ZINC000530457945   -0.3000
     11 N11        -8.2515    0.0647   51.9925 N.pl3   1  ZINC000530457945   -0.2800
     12 C12        -9.0458   -1.0222   52.1795 C.2     1  ZINC000530457945    0.1400
     13 C13       -10.3733   -0.8753   52.3971 C.2     1  ZINC000530457945   -0.0800
     14 Cl14      -11.3720   -2.2753   52.6338 Cl      1  ZINC000530457945   -0.0200
     15 C15       -10.9446    0.4058   52.4324 C.2     1  ZINC000530457945   -0.0500
     16 C16       -10.1550    1.5001   52.2463 C.2     1  ZINC000530457945   -0.0900
     17 C17        -8.7780    1.3246   52.0213 C.2     1  ZINC000530457945    0.3000
     18 N18        -7.7809    2.1799   51.8174 N.2     1  ZINC000530457945   -0.5500
     19 C19        -3.6507    5.2473   52.1987 C.3     1  ZINC000530457945   -0.1200
     20 C20        -2.1036    5.2827   52.2684 C.3     1  ZINC000530457945    0.0400
     21 N21        -1.6917    3.8593   52.2615 N.3     1  ZINC000530457945   -0.4900
     22 C22        -0.4785    3.6926   51.5895 C.ar    1  ZINC000530457945    0.1000
     23 C23         0.4932    2.8455   52.1068 C.ar    1  ZINC000530457945   -0.1600
     24 C24         1.6913    2.6827   51.4396 C.ar    1  ZINC000530457945   -0.1100
     25 C25         1.9244    3.3623   50.2580 C.ar    1  ZINC000530457945   -0.1300
     26 C26         0.9593    4.2064   49.7403 C.ar    1  ZINC000530457945   -0.1100
     27 C27        -0.2434    4.3693   50.3993 C.ar    1  ZINC000530457945   -0.1000
     28 H28        -1.3452    1.7917   50.6224 H       1  ZINC000530457945    0.0700
     29 H29        -2.9925    1.7330   49.9507 H       1  ZINC000530457945    0.0600
     30 H30        -1.9503    3.1401   49.6304 H       1  ZINC000530457945    0.0600
     31 H31        -4.6389    1.5270   51.1798 H       1  ZINC000530457945    0.4300
     32 H32        -8.6138   -2.0117   52.1539 H       1  ZINC000530457945    0.1800
     33 H33       -12.0041    0.5236   52.6057 H       1  ZINC000530457945    0.1600
     34 H34       -10.5820    2.4918   52.2707 H       1  ZINC000530457945    0.1700
     35 H35        -4.0435    6.1698   51.7711 H       1  ZINC000530457945    0.0900
     36 H36        -4.0818    5.0602   53.1822 H       1  ZINC000530457945    0.0900
     37 H37        -1.6964    5.8012   51.4004 H       1  ZINC000530457945    0.0700
     38 H38        -1.7762    5.7665   53.1886 H       1  ZINC000530457945    0.0900
     39 H39         0.3121    2.3150   53.0299 H       1  ZINC000530457945    0.1200
     40 H40         2.4473    2.0241   51.8412 H       1  ZINC000530457945    0.1200
     41 H41         2.8626    3.2337   49.7385 H       1  ZINC000530457945    0.1200
     42 H42         1.1444    4.7357   48.8172 H       1  ZINC000530457945    0.1300
     43 H43        -0.9969    5.0286   49.9944 H       1  ZINC000530457945    0.1300
@<TRIPOS>BOND
     1     1     2    1
     2     1    28    1
     3     1    29    1
     4     1    30    1
     5     2     3    1
     6     2    21    1
     7     2     4    1
     8     4     5    1
     9     4     6    1
    10     4    19    1
    11     6     7    2
    12     6     8   am
    13     8     9    1
    14     8    31    1
    15     9    18    1
    16     9    10    2
    17    10    11    1
    18    11    17    1
    19    11    12    1
    20    12    13    2
    21    12    32    1
    22    13    14    1
    23    13    15    1
    24    15    16    2
    25    15    33    1
    26    16    17    1
    27    16    34    1
    28    17    18    2
    29    19    20    1
    30    19    35    1
    31    19    36    1
    32    20    21    1
    33    20    37    1
    34    20    38    1
    35    21    22    1
    36    22    27   ar
    37    22    23   ar
    38    23    24   ar
    39    23    39    1
    40    24    25   ar
    41    24    40    1
    42    25    26   ar
    43    25    41    1
    44    26    27   ar
    45    26    42    1
    46    27    43    1
@<TRIPOS>SUBSTRUCTURE
     1 ZINC000530457945        1 TEMP              0 ****  ****    0 ROOT


##########                                Name:    ZINC000939075213
##########                DOCK_Rotatable_Bonds:                   7
##########                         Heavy_Atoms:                  24
##########                    Molecular_Weight:             327.426
##########                DOCK_Rotatable_Bonds:                   7
##########                       Formal_Charge:          -0.0200002
##########                     HBond_Acceptors:                   5
##########                        HBond_Donors:                   2
##########                         Heavy_Atoms:                  24
##########                          Grid_Score:          -28.332266
##########                     Grid_vdw_energy:          -27.688438
##########                      Grid_es_energy:           -0.643827
##########           Internal_energy_repulsive:            7.375895

@<TRIPOS>MOLECULE
ZINC000939075213
 49 51 1 0 0
SMALL
USER_CHARGES


@<TRIPOS>ATOM
      1 C1        -11.2870    2.2013   63.4073 C.3     1  ZINC000939075213   -0.1400
      2 C2        -10.1044    1.5198   62.7161 C.3     1  ZINC000939075213   -0.1100
      3 H3         -9.4680    2.2535   62.2212 H       1  ZINC000939075213    0.0900
      4 C4        -10.5917    0.4425   61.7155 C.3     1  ZINC000939075213    0.1100
      5 N5         -9.4672   -0.5042   61.6027 N.am    1  ZINC000939075213   -0.6200
      6 C6         -9.2274   -1.3178   60.5554 C.2     1  ZINC000939075213    0.5600
      7 O7         -8.2628   -2.0611   60.5700 O.2     1  ZINC000939075213   -0.5400
      8 C8        -10.0965   -1.3084   59.4385 C.2     1  ZINC000939075213   -0.2600
      9 C9        -10.4280   -2.4729   58.8276 C.2     1  ZINC000939075213    0.0400
     10 C10       -11.2980   -2.4637   57.7094 C.2     1  ZINC000939075213    0.0000
     11 C11       -11.6921   -3.5643   56.9708 C.2     1  ZINC000939075213   -0.1500
     12 C12       -12.5479   -3.1002   55.9676 C.2     1  ZINC000939075213   -0.2200
     13 C13       -12.6610   -1.7569   56.1047 C.2     1  ZINC000939075213    0.0200
     14 N14       -11.9104   -1.3581   57.1633 N.pl3   1  ZINC000939075213   -0.5000
     15 C15        -8.6501   -0.4130   62.8216 C.3     1  ZINC000939075213    0.0900
     16 C16        -9.2891    0.6655   63.7226 C.3     1  ZINC000939075213    0.1400
     17 H17        -9.9473    0.2096   64.4623 H       1  ZINC000939075213    0.1100
     18 N18        -8.2563    1.4721   64.3776 N.am    1  ZINC000939075213   -0.7200
     19 C19        -7.6608    1.0222   65.4997 C.2     1  ZINC000939075213    0.5300
     20 O20        -7.9808   -0.0498   65.9682 O.2     1  ZINC000939075213   -0.5300
     21 C21        -6.5972    1.8512   66.1725 C.3     1  ZINC000939075213   -0.0600
     22 C22        -6.1135    1.1612   67.4495 C.3     1  ZINC000939075213   -0.1300
     23 C23        -5.4407    2.0895   65.2297 C.2     1  ZINC000939075213   -0.1700
     24 C24        -5.0542    3.3357   65.2656 C.2     1  ZINC000939075213   -0.1400
     25 C25        -5.8884    4.1363   66.2383 C.3     1  ZINC000939075213   -0.1100
     26 C26        -7.1386    3.2632   66.4953 C.3     1  ZINC000939075213   -0.1100
     27 H27       -10.9163    2.8948   64.1622 H       1  ZINC000939075213    0.0600
     28 H28       -11.8737    2.7479   62.6688 H       1  ZINC000939075213    0.0700
     29 H29       -11.9136    1.4471   63.8832 H       1  ZINC000939075213    0.0600
     30 H30       -11.4759   -0.0633   62.1034 H       1  ZINC000939075213    0.0700
     31 H31       -10.8062    0.8938   60.7468 H       1  ZINC000939075213    0.0800
     32 H32       -10.4957   -0.3740   59.0727 H       1  ZINC000939075213    0.1300
     33 H33       -10.0287   -3.4074   59.1934 H       1  ZINC000939075213    0.1500
     34 H34       -11.3944   -4.5890   57.1373 H       1  ZINC000939075213    0.1400
     35 H35       -13.0330   -3.7054   55.2160 H       1  ZINC000939075213    0.1400
     36 H36       -13.2546   -1.1094   55.4763 H       1  ZINC000939075213    0.1600
     37 H37       -11.8167   -0.4455   57.4786 H       1  ZINC000939075213    0.4100
     38 H38        -8.6461   -1.3730   63.3378 H       1  ZINC000939075213    0.0800
     39 H39        -7.6312   -0.1239   62.5641 H       1  ZINC000939075213    0.0700
     40 H40        -8.0011    2.3300   64.0035 H       1  ZINC000939075213    0.4000
     41 H41        -5.7096    0.1795   67.2014 H       1  ZINC000939075213    0.0600
     42 H42        -5.3368    1.7659   67.9174 H       1  ZINC000939075213    0.0700
     43 H43        -6.9495    1.0462   68.1394 H       1  ZINC000939075213    0.0600
     44 H44        -4.9925    1.3286   64.6080 H       1  ZINC000939075213    0.1300
     45 H45        -4.2442    3.7413   64.6776 H       1  ZINC000939075213    0.1300
     46 H46        -5.3400    4.2966   67.1667 H       1  ZINC000939075213    0.0800
     47 H47        -6.1758    5.0903   65.7965 H       1  ZINC000939075213    0.0800
     48 H48        -7.9507    3.5346   65.8206 H       1  ZINC000939075213    0.0900
     49 H49        -7.4568    3.3320   67.5355 H       1  ZINC000939075213    0.0800
@<TRIPOS>BOND
     1     1     2    1
     2     1    27    1
     3     1    28    1
     4     1    29    1
     5     2     3    1
     6     2    16    1
     7     2     4    1
     8     4     5    1
     9     4    30    1
    10     4    31    1
    11     5     6   am
    12     5    15    1
    13     6     7    2
    14     6     8    1
    15     8     9    2
    16     8    32    1
    17     9    10    1
    18     9    33    1
    19    10    14    1
    20    10    11    2
    21    11    12    1
    22    11    34    1
    23    12    13    2
    24    12    35    1
    25    13    14    1
    26    13    36    1
    27    14    37    1
    28    15    16    1
    29    15    38    1
    30    15    39    1
    31    16    17    1
    32    16    18    1
    33    18    19   am
    34    18    40    1
    35    19    20    2
    36    19    21    1
    37    21    26    1
    38    21    22    1
    39    21    23    1
    40    22    41    1
    41    22    42    1
    42    22    43    1
    43    23    24    2
    44    23    44    1
    45    24    25    1
    46    24    45    1
    47    25    26    1
    48    25    46    1
    49    25    47    1
    50    26    48    1
    51    26    49    1
@<TRIPOS>SUBSTRUCTURE
     1 ZINC000939075213        1 TEMP              0 ****  ****    0 ROOT


##########                                Name:    ZINC000549381790
##########                DOCK_Rotatable_Bonds:                   7
##########                         Heavy_Atoms:                  23
##########                    Molecular_Weight:             337.846
##########                DOCK_Rotatable_Bonds:                   7
##########                       Formal_Charge:           0.0300006
##########                     HBond_Acceptors:                   5
##########                        HBond_Donors:                   0
##########                         Heavy_Atoms:                  23
##########                          Grid_Score:          -28.313837
##########                     Grid_vdw_energy:          -28.383759
##########                      Grid_es_energy:            0.069922
##########           Internal_energy_repulsive:           86.741104

@<TRIPOS>MOLECULE
ZINC000549381790
 47 49 1 0 0
SMALL
USER_CHARGES


@<TRIPOS>ATOM
      1 C1        -15.1731   -0.4798   54.4175 C.3     1  ZINC000549381790   -0.1400
      2 C2        -14.0110   -1.0916   55.2023 C.3     1  ZINC000549381790    0.1500
      3 H3        -13.8649   -0.5381   56.1299 H       1  ZINC000549381790    0.0700
      4 C4        -14.3224   -2.5570   55.5224 C.3     1  ZINC000549381790   -0.1300
      5 C5        -13.1018   -3.2012   56.1836 C.3     1  ZINC000549381790   -0.1200
      6 C6        -11.9151   -3.1594   55.2181 C.3     1  ZINC000549381790   -0.1400
      7 C7        -11.5763   -1.7009   54.8946 C.3     1  ZINC000549381790    0.1000
      8 N8        -12.7853   -1.0313   54.3945 N.am    1  ZINC000549381790   -0.6100
      9 C9        -12.7709   -0.3789   53.2153 C.2     1  ZINC000549381790    0.5200
     10 O10       -13.7752    0.1696   52.8135 O.2     1  ZINC000549381790   -0.5000
     11 C11       -11.5070   -0.3312   52.3959 C.3     1  ZINC000549381790    0.0400
     12 O12       -10.5156    0.4260   53.0933 O.3     1  ZINC000549381790   -0.2800
     13 C13        -9.4023    0.7761   52.3954 C.ar    1  ZINC000549381790    0.1100
     14 C14        -8.4525   -0.1832   52.0784 C.ar    1  ZINC000549381790   -0.1700
     15 C15        -7.3212    0.1719   51.3689 C.ar    1  ZINC000549381790   -0.1600
     16 C16        -7.1350    1.4878   50.9740 C.ar    1  ZINC000549381790    0.1100
     17 O17        -6.0214    1.8373   50.2757 O.3     1  ZINC000549381790   -0.3000
     18 C18        -4.7826    1.8377   50.9880 C.3     1  ZINC000549381790    0.0900
     19 C19        -3.7810    2.7432   50.2684 C.3     1  ZINC000549381790   -0.1600
     20 C20        -3.1159    3.8516   51.0870 C.3     1  ZINC000549381790   -0.1700
     21 C21        -2.3081    2.6227   50.6648 C.3     1  ZINC000549381790   -0.1700
     22 C22        -8.0855    2.4486   51.2912 C.ar    1  ZINC000549381790   -0.0300
     23 Cl23       -7.8531    4.0963   50.7965 Cl      1  ZINC000549381790   -0.0400
     24 C24        -9.2196    2.0919   51.9958 C.ar    1  ZINC000549381790   -0.1000
     25 H25       -15.2537   -0.9692   53.4469 H       1  ZINC000549381790    0.0600
     26 H26       -16.1004   -0.6200   54.9730 H       1  ZINC000549381790    0.0500
     27 H27       -14.9934    0.5855   54.2735 H       1  ZINC000549381790    0.0800
     28 H28       -15.1735   -2.6080   56.2016 H       1  ZINC000549381790    0.0800
     29 H29       -14.5597   -3.0882   54.6007 H       1  ZINC000549381790    0.0700
     30 H30       -12.8502   -2.6543   57.0923 H       1  ZINC000549381790    0.0700
     31 H31       -13.3293   -4.2371   56.4348 H       1  ZINC000549381790    0.0700
     32 H32       -11.0526   -3.6391   55.6808 H       1  ZINC000549381790    0.0800
     33 H33       -12.1750   -3.6849   54.2993 H       1  ZINC000549381790    0.0700
     34 H34       -11.2292   -1.1975   55.7970 H       1  ZINC000549381790    0.0800
     35 H35       -10.7979   -1.6669   54.1324 H       1  ZINC000549381790    0.0800
     36 H36       -11.1414   -1.3450   52.2326 H       1  ZINC000549381790    0.0900
     37 H37       -11.7143    0.1395   51.4350 H       1  ZINC000549381790    0.0900
     38 H38        -8.5968   -1.2083   52.3864 H       1  ZINC000549381790    0.1400
     39 H39        -6.5817   -0.5756   51.1223 H       1  ZINC000549381790    0.1400
     40 H40        -4.9454    2.2082   52.0000 H       1  ZINC000549381790    0.0700
     41 H41        -4.3882    0.8225   51.0317 H       1  ZINC000549381790    0.0700
     42 H42        -4.0051    2.9547   49.2229 H       1  ZINC000549381790    0.1200
     43 H43        -2.9024    4.7926   50.5801 H       1  ZINC000549381790    0.1000
     44 H44        -3.3919    3.9357   52.1381 H       1  ZINC000549381790    0.1000
     45 H45        -2.0527    1.8983   51.4381 H       1  ZINC000549381790    0.1000
     46 H46        -1.5633    2.7553   49.8801 H       1  ZINC000549381790    0.1000
     47 H47        -9.9593    2.8389   52.2427 H       1  ZINC000549381790    0.1500
@<TRIPOS>BOND
     1     1     2    1
     2     1    25    1
     3     1    26    1
     4     1    27    1
     5     2     3    1
     6     2     8    1
     7     2     4    1
     8     4     5    1
     9     4    28    1
    10     4    29    1
    11     5     6    1
    12     5    30    1
    13     5    31    1
    14     6     7    1
    15     6    32    1
    16     6    33    1
    17     7     8    1
    18     7    34    1
    19     7    35    1
    20     8     9   am
    21     9    10    2
    22     9    11    1
    23    11    12    1
    24    11    36    1
    25    11    37    1
    26    12    13    1
    27    13    24   ar
    28    13    14   ar
    29    14    15   ar
    30    14    38    1
    31    15    16   ar
    32    15    39    1
    33    16    17    1
    34    16    22   ar
    35    17    18    1
    36    18    19    1
    37    18    40    1
    38    18    41    1
    39    19    21    1
    40    19    20    1
    41    19    42    1
    42    20    21    1
    43    20    43    1
    44    20    44    1
    45    21    45    1
    46    21    46    1
    47    22    23    1
    48    22    24   ar
    49    24    47    1
@<TRIPOS>SUBSTRUCTURE
     1 ZINC000549381790        1 TEMP              0 ****  ****    0 ROOT


##########                                Name:    ZINC000022858610
##########                DOCK_Rotatable_Bonds:                   9
##########                         Heavy_Atoms:                  26
##########                    Molecular_Weight:             369.343
##########                DOCK_Rotatable_Bonds:                   9
##########                       Formal_Charge:          0.00999956
##########                     HBond_Acceptors:                   9
##########                        HBond_Donors:                   2
##########                         Heavy_Atoms:                  26
##########                          Grid_Score:          -28.303528
##########                     Grid_vdw_energy:          -27.210402
##########                      Grid_es_energy:           -1.093126
##########           Internal_energy_repulsive:           18.103127

@<TRIPOS>MOLECULE
ZINC000022858610
 44 45 1 0 0
SMALL
USER_CHARGES


@<TRIPOS>ATOM
      1 C1        -13.9310   -0.6184   53.4912 C.3     1  <0>         0.0100
      2 N2        -13.3269   -1.3826   54.5907 N.3     1  <0>        -0.5300
      3 C3        -14.3454   -2.1487   55.3213 C.3     1  <0>         0.0200
      4 C4        -12.2602   -2.2631   54.0960 C.3     1  <0>         0.1500
      5 H5        -12.6767   -2.9717   53.3802 H       1  <0>         0.1200
      6 C6        -11.6440   -3.0268   55.2699 C.3     1  <0>         0.1300
      7 N7        -11.3848   -2.0992   56.3738 N.am    1  <0>        -0.6800
      8 C8        -10.9957   -2.5723   57.5743 C.2     1  <0>         0.5100
      9 O9        -10.8587   -3.7665   57.7406 O.2     1  <0>        -0.5100
     10 C10       -10.7331   -1.6267   58.7001 C.2     1  <0>         0.5200
     11 O11       -10.3746   -0.4907   58.4675 O.2     1  <0>        -0.4900
     12 N12       -10.8944   -2.0348   59.9745 N.am    1  <0>        -0.6500
     13 C13       -10.6487   -1.1501   61.0278 C.ar    1  <0>         0.1900
     14 C14        -9.3531   -0.9639   61.4928 C.ar    1  <0>        -0.1200
     15 C15        -9.1139   -0.0887   62.5341 C.ar    1  <0>        -0.0700
     16 C16       -10.1624    0.6019   63.1136 C.ar    1  <0>        -0.1300
     17 C17       -11.4537    0.4185   62.6534 C.ar    1  <0>        -0.0500
     18 C18       -11.6993   -0.4502   61.6086 C.ar    1  <0>        -0.2100
     19 C19       -13.1065   -0.6493   61.1079 C.3     1  <0>         0.5100
     20 F20       -13.4156   -2.0137   61.1155 F       1  <0>        -0.1700
     21 F21       -13.9988    0.0356   61.9397 F       1  <0>        -0.1800
     22 F22       -13.2117   -0.1546   59.8034 F       1  <0>        -0.1700
     23 C23       -11.1970   -1.4346   53.4222 C.2     1  <0>        -0.0500
     24 C24       -10.8211   -0.1940   53.7813 C.2     1  <0>        -0.1900
     25 C25        -9.8023    0.2011   52.8843 C.2     1  <0>        -0.2100
     26 C26        -9.6164   -0.8216   52.0306 C.2     1  <0>        -0.0400
     27 O27       -10.4598   -1.8120   52.3648 O.3     1  <0>        -0.1700
     28 H28       -14.5805    0.1554   53.9003 H       1  <0>         0.0700
     29 H29       -13.1445   -0.1550   52.8956 H       1  <0>         0.0700
     30 H30       -14.5164   -1.2886   52.8616 H       1  <0>         0.0500
     31 H31       -14.8350   -2.8444   54.6398 H       1  <0>         0.0300
     32 H32       -13.8711   -2.7050   56.1297 H       1  <0>         0.0700
     33 H33       -15.0860   -1.4650   55.7363 H       1  <0>         0.0800
     34 H34       -12.3346   -3.8022   55.6016 H       1  <0>         0.0900
     35 H35       -10.7074   -3.4857   54.9534 H       1  <0>         0.0800
     36 H36       -11.4930   -1.1445   56.2406 H       1  <0>         0.4200
     37 H37       -11.1809   -2.9426   60.1604 H       1  <0>         0.4300
     38 H38        -8.5337   -1.5032   61.0408 H       1  <0>         0.1500
     39 H39        -8.1068    0.0563   62.8964 H       1  <0>         0.1400
     40 H40        -9.9724    1.2857   63.9277 H       1  <0>         0.1400
     41 H41       -12.2704    0.9589   63.1088 H       1  <0>         0.1500
     42 H42       -11.2213    0.3887   54.5978 H       1  <0>         0.1500
     43 H43        -9.2746    1.1435   52.8842 H       1  <0>         0.1500
     44 H44        -8.9065   -0.8442   51.2170 H       1  <0>         0.2000
@<TRIPOS>BOND
     1     1     2    1
     2     1    28    1
     3     1    29    1
     4     1    30    1
     5     2     3    1
     6     2     4    1
     7     3    31    1
     8     3    32    1
     9     3    33    1
    10     4     5    1
    11     4     6    1
    12     4    23    1
    13     6     7    1
    14     6    34    1
    15     6    35    1
    16     7     8   am
    17     7    36    1
    18     8     9    2
    19     8    10    1
    20    10    11    2
    21    10    12   am
    22    12    13    1
    23    12    37    1
    24    13    18   ar
    25    13    14   ar
    26    14    15   ar
    27    14    38    1
    28    15    16   ar
    29    15    39    1
    30    16    17   ar
    31    16    40    1
    32    17    18   ar
    33    17    41    1
    34    18    19    1
    35    19    20    1
    36    19    21    1
    37    19    22    1
    38    23    27    1
    39    23    24    2
    40    24    25    1
    41    24    42    1
    42    25    26    2
    43    25    43    1
    44    26    27    1
    45    26    44    1
@<TRIPOS>SUBSTRUCTURE
     1 <0>         1 TEMP              0 ****  ****    0 ROOT


##########                                Name:    ZINC000962855438
##########                DOCK_Rotatable_Bonds:                   7
##########                         Heavy_Atoms:                  27
##########                    Molecular_Weight:             370.448
##########                DOCK_Rotatable_Bonds:                   7
##########                       Formal_Charge:           0.0300005
##########                     HBond_Acceptors:                   6
##########                        HBond_Donors:                   2
##########                         Heavy_Atoms:                  27
##########                          Grid_Score:          -28.301657
##########                     Grid_vdw_energy:          -27.581079
##########                      Grid_es_energy:           -0.720578
##########           Internal_energy_repulsive:           11.991722

@<TRIPOS>MOLECULE
ZINC000962855438
 53 56 1 0 0
SMALL
USER_CHARGES


@<TRIPOS>ATOM
      1 C1         -0.3690    4.9922   55.1680 C.3     1  ZINC000962855438   -0.1100
      2 C2         -1.7085    4.3289   54.9756 C.2     1  ZINC000962855438   -0.1700
      3 C3         -2.4321    4.4877   53.7049 C.2     1  ZINC000962855438    0.5600
      4 O4         -1.9194    5.0961   52.7851 O.2     1  ZINC000962855438   -0.5400
      5 N5         -3.6633    3.9590   53.5597 N.am    1  ZINC000962855438   -0.7100
      6 C6         -4.3847    4.1186   52.2946 C.3     1  ZINC000962855438    0.1500
      7 H7         -4.3880    5.1616   51.9782 H       1  ZINC000962855438    0.1200
      8 C8         -5.8282    3.5673   52.4053 C.3     1  ZINC000962855438    0.1000
      9 N9         -6.2065    3.2205   51.0233 N.am    1  ZINC000962855438   -0.6100
     10 C10        -7.4659    3.1437   50.5494 C.2     1  ZINC000962855438    0.5800
     11 O11        -7.6608    2.8480   49.3863 O.2     1  ZINC000962855438   -0.5200
     12 C12        -8.6079    3.4186   51.4421 C.ar    1  ZINC000962855438   -0.1500
     13 C13        -8.9722    4.7349   51.7253 C.ar    1  ZINC000962855438   -0.0600
     14 C14       -10.0381    4.9948   52.5596 C.ar    1  ZINC000962855438   -0.1500
     15 C15       -10.7486    3.9464   53.1225 C.ar    1  ZINC000962855438   -0.0500
     16 C16       -10.3957    2.6431   52.8520 C.ar    1  ZINC000962855438   -0.1800
     17 C17        -9.3348    2.3535   52.0045 C.ar    1  ZINC000962855438    0.1600
     18 O18        -9.1720    1.0127   51.8576 O.3     1  ZINC000962855438   -0.2800
     19 C19        -9.8298    0.3336   52.9408 C.3     1  ZINC000962855438    0.0700
     20 H20        -9.1459    0.1868   53.7767 H       1  ZINC000962855438    0.0900
     21 C21       -10.4049   -1.0045   52.4722 C.3     1  ZINC000962855438   -0.1500
     22 C22       -10.9645    1.3171   53.3197 C.3     1  ZINC000962855438   -0.1100
     23 C23        -4.9825    2.9730   50.2474 C.3     1  ZINC000962855438    0.0700
     24 C24        -3.7849    3.2051   51.1933 C.3     1  ZINC000962855438    0.0900
     25 H25        -2.9731    3.7113   50.6708 H       1  ZINC000962855438    0.0900
     26 O26        -3.3326    1.9686   51.7491 O.3     1  ZINC000962855438   -0.5600
     27 C27        -2.2362    3.5998   55.9548 C.2     1  ZINC000962855438   -0.0600
     28 C28        -1.8393    3.2044   57.3614 C.3     1  ZINC000962855438   -0.1000
     29 C29        -2.7197    1.9573   57.1844 C.3     1  ZINC000962855438   -0.1400
     30 C30        -3.5049    2.8001   56.1628 C.3     1  ZINC000962855438   -0.1100
     31 H31        -0.5138    5.9887   55.5853 H       1  ZINC000962855438    0.0700
     32 H32         0.2365    4.3965   55.8512 H       1  ZINC000962855438    0.0700
     33 H33         0.1388    5.0710   54.2068 H       1  ZINC000962855438    0.0700
     34 H34        -4.0718    3.4727   54.2930 H       1  ZINC000962855438    0.4100
     35 H35        -5.8480    2.6801   53.0381 H       1  ZINC000962855438    0.0800
     36 H36        -6.4969    4.3317   52.8011 H       1  ZINC000962855438    0.0900
     37 H37        -8.4174    5.5527   51.2897 H       1  ZINC000962855438    0.1400
     38 H38       -10.3193    6.0151   52.7749 H       1  ZINC000962855438    0.1400
     39 H39       -11.5827    4.1525   53.7768 H       1  ZINC000962855438    0.1300
     40 H40        -9.5956   -1.6457   52.1232 H       1  ZINC000962855438    0.0700
     41 H41       -10.9202   -1.4889   53.3016 H       1  ZINC000962855438    0.0800
     42 H42       -11.1090   -0.8323   51.6581 H       1  ZINC000962855438    0.0700
     43 H43       -11.1285    1.3261   54.3972 H       1  ZINC000962855438    0.1000
     44 H44       -11.8848    1.0732   52.7890 H       1  ZINC000962855438    0.1000
     45 H45        -4.9750    1.9452   49.8845 H       1  ZINC000962855438    0.0800
     46 H46        -4.9299    3.6653   49.4071 H       1  ZINC000962855438    0.0800
     47 H47        -4.0201    1.4707   52.2119 H       1  ZINC000962855438    0.3900
     48 H48        -0.7785    2.9773   57.4672 H       1  ZINC000962855438    0.0900
     49 H49        -2.2040    3.8902   58.1261 H       1  ZINC000962855438    0.1000
     50 H50        -2.1956    1.1064   56.7493 H       1  ZINC000962855438    0.0900
     51 H51        -3.2962    1.6958   58.0718 H       1  ZINC000962855438    0.0800
     52 H52        -4.3190    3.3742   56.6054 H       1  ZINC000962855438    0.1000
     53 H53        -3.8132    2.2393   55.2804 H       1  ZINC000962855438    0.0800
@<TRIPOS>BOND
     1     1     2    1
     2     1    31    1
     3     1    32    1
     4     1    33    1
     5     2     3    1
     6     2    27    2
     7     3     4    2
     8     3     5   am
     9     5     6    1
    10     5    34    1
    11     6     7    1
    12     6    24    1
    13     6     8    1
    14     8     9    1
    15     8    35    1
    16     8    36    1
    17     9    10   am
    18     9    23    1
    19    10    11    2
    20    10    12    1
    21    12    17   ar
    22    12    13   ar
    23    13    14   ar
    24    13    37    1
    25    14    15   ar
    26    14    38    1
    27    15    16   ar
    28    15    39    1
    29    16    22    1
    30    16    17   ar
    31    17    18    1
    32    18    19    1
    33    19    20    1
    34    19    21    1
    35    19    22    1
    36    21    40    1
    37    21    41    1
    38    21    42    1
    39    22    43    1
    40    22    44    1
    41    23    24    1
    42    23    45    1
    43    23    46    1
    44    24    25    1
    45    24    26    1
    46    26    47    1
    47    27    30    1
    48    27    28    1
    49    28    29    1
    50    28    48    1
    51    28    49    1
    52    29    30    1
    53    29    50    1
    54    29    51    1
    55    30    52    1
    56    30    53    1
@<TRIPOS>SUBSTRUCTURE
     1 ZINC000962855438        1 TEMP              0 ****  ****    0 ROOT


##########                                Name:    ZINC001356153960
##########                DOCK_Rotatable_Bonds:                   8
##########                         Heavy_Atoms:                  24
##########                    Molecular_Weight:             334.366
##########                DOCK_Rotatable_Bonds:                   8
##########                       Formal_Charge:           0.0100003
##########                     HBond_Acceptors:                   6
##########                        HBond_Donors:                   1
##########                         Heavy_Atoms:                  24
##########                          Grid_Score:          -28.293390
##########                     Grid_vdw_energy:          -26.884506
##########                      Grid_es_energy:           -1.408885
##########           Internal_energy_repulsive:           14.713048

@<TRIPOS>MOLECULE
ZINC001356153960
 44 46 1 0 0
SMALL
USER_CHARGES


@<TRIPOS>ATOM
      1 O1         -4.5691    5.2508   54.3218 O.2     1  ZINC001356153960   -0.5200
      2 C2         -5.2022    4.2169   54.2713 C.2     1  ZINC001356153960    0.5100
      3 N3         -5.0735    3.2994   55.2503 N.am    1  ZINC001356153960   -0.7000
      4 C4         -4.1740    3.5532   56.3783 C.3     1  ZINC001356153960    0.1300
      5 C5         -2.9124    2.7010   56.2265 C.3     1  ZINC001356153960   -0.0800
      6 H6         -3.1501    1.7558   55.7385 H       1  ZINC001356153960    0.0900
      7 C7         -1.8625    3.4503   55.4395 C.2     1  ZINC001356153960   -0.1700
      8 C8         -0.6883    3.3399   55.9985 C.2     1  ZINC001356153960   -0.1600
      9 C9         -0.7592    2.4983   57.2515 C.3     1  ZINC001356153960   -0.1000
     10 C10        -2.2650    2.4463   57.6074 C.3     1  ZINC001356153960   -0.1200
     11 C11        -6.1198    3.9579   53.1205 C.2     1  ZINC001356153960    0.5100
     12 O12        -7.2510    4.3971   53.1356 O.2     1  ZINC001356153960   -0.5100
     13 N13        -5.6911    3.2364   52.0659 N.am    1  ZINC001356153960   -0.5500
     14 C14        -6.5906    2.9825   50.9378 C.3     1  ZINC001356153960    0.1300
     15 C15        -7.7088    2.0749   51.3812 C.ar    1  ZINC001356153960   -0.1600
     16 C16        -8.9730    2.5901   51.5952 C.ar    1  ZINC001356153960   -0.0300
     17 C17       -10.0010    1.7577   51.9965 C.ar    1  ZINC001356153960   -0.1700
     18 C18        -9.7623    0.4085   52.1956 C.ar    1  ZINC001356153960    0.1400
     19 F19       -10.7659   -0.4040   52.5929 F       1  ZINC001356153960   -0.1300
     20 C20        -8.4947   -0.1078   51.9871 C.ar    1  ZINC001356153960   -0.2000
     21 C21        -7.4676    0.7255   51.5798 C.ar    1  ZINC001356153960    0.1500
     22 F22        -6.2302    0.2232   51.3762 F       1  ZINC001356153960   -0.1200
     23 C23        -4.3255    2.7063   52.0475 C.3     1  ZINC001356153960    0.0700
     24 C24        -3.1847    3.7006   51.8213 C.3     1  ZINC001356153960   -0.1900
     25 C25        -3.5793    2.7223   50.7119 C.3     1  ZINC001356153960   -0.1800
     26 H26        -5.5765    2.4712   55.2078 H       1  ZINC001356153960    0.4100
     27 H27        -3.9000    4.6082   56.3944 H       1  ZINC001356153960    0.0800
     28 H28        -4.6774    3.2944   57.3099 H       1  ZINC001356153960    0.0800
     29 H29        -2.0582    4.0049   54.5336 H       1  ZINC001356153960    0.1200
     30 H30         0.2153    3.7909   55.6159 H       1  ZINC001356153960    0.1300
     31 H31        -0.3818    1.4945   57.0566 H       1  ZINC001356153960    0.0800
     32 H32        -0.1922    2.9667   58.0561 H       1  ZINC001356153960    0.0700
     33 H33        -2.5272    3.2340   58.3138 H       1  ZINC001356153960    0.0800
     34 H34        -2.5435    1.4665   57.9955 H       1  ZINC001356153960    0.0800
     35 H35        -7.0067    3.9262   50.5853 H       1  ZINC001356153960    0.0900
     36 H36        -6.0347    2.5063   50.1300 H       1  ZINC001356153960    0.1400
     37 H37        -9.1590    3.6432   51.4448 H       1  ZINC001356153960    0.1600
     38 H38       -10.9896    2.1607   52.1596 H       1  ZINC001356153960    0.1400
     39 H39        -8.3075   -1.1600   52.1424 H       1  ZINC001356153960    0.1500
     40 H40        -4.1373    1.8687   52.7191 H       1  ZINC001356153960    0.1400
     41 H41        -3.4503    4.7490   51.6861 H       1  ZINC001356153960    0.1400
     42 H42        -2.2460    3.5167   52.3437 H       1  ZINC001356153960    0.0900
     43 H43        -2.8999    1.8954   50.5051 H       1  ZINC001356153960    0.1000
     44 H44        -4.1045    3.1273   49.8468 H       1  ZINC001356153960    0.0900
@<TRIPOS>BOND
     1     1     2    2
     2     2     3   am
     3     2    11    1
     4     3     4    1
     5     3    26    1
     6     4     5    1
     7     4    27    1
     8     4    28    1
     9     5     6    1
    10     5    10    1
    11     5     7    1
    12     7     8    2
    13     7    29    1
    14     8     9    1
    15     8    30    1
    16     9    10    1
    17     9    31    1
    18     9    32    1
    19    10    33    1
    20    10    34    1
    21    11    12    2
    22    11    13   am
    23    13    14    1
    24    13    23    1
    25    14    15    1
    26    14    35    1
    27    14    36    1
    28    15    21   ar
    29    15    16   ar
    30    16    17   ar
    31    16    37    1
    32    17    18   ar
    33    17    38    1
    34    18    19    1
    35    18    20   ar
    36    20    21   ar
    37    20    39    1
    38    21    22    1
    39    23    25    1
    40    23    24    1
    41    23    40    1
    42    24    25    1
    43    24    41    1
    44    24    42    1
    45    25    43    1
    46    25    44    1
@<TRIPOS>SUBSTRUCTURE
     1 ZINC001356153960        1 TEMP              0 ****  ****    0 ROOT


##########                                Name:    ZINC000863208514
##########                DOCK_Rotatable_Bonds:                   6
##########                         Heavy_Atoms:                  19
##########                    Molecular_Weight:             368.657
##########                DOCK_Rotatable_Bonds:                   6
##########                       Formal_Charge:           0.0100005
##########                     HBond_Acceptors:                   7
##########                        HBond_Donors:                   2
##########                         Heavy_Atoms:                  19
##########                          Grid_Score:          -28.287336
##########                     Grid_vdw_energy:          -26.492603
##########                      Grid_es_energy:           -1.794733
##########           Internal_energy_repulsive:            9.417801

@<TRIPOS>MOLECULE
ZINC000863208514
 31 31 1 0 0
SMALL
USER_CHARGES


@<TRIPOS>ATOM
      1 C1         -4.0477    4.7867   51.3823 C.3     1  ZINC000863208514    0.0900
      2 N2         -2.8546    4.0090   51.0393 N.am    1  ZINC000863208514   -0.6100
      3 C3         -1.5261    4.5052   51.4069 C.3     1  ZINC000863208514    0.0700
      4 C4         -2.9791    2.8370   50.3854 C.2     1  ZINC000863208514    0.5100
      5 O5         -1.9914    2.1924   50.1027 O.2     1  ZINC000863208514   -0.5400
      6 C6         -4.3455    2.3276   50.0056 C.3     1  ZINC000863208514    0.1100
      7 N7         -4.9648    1.6801   51.1647 N.am    1  ZINC000863208514   -0.6600
      8 C8         -6.3074    1.6200   51.2656 C.2     1  ZINC000863208514    0.5600
      9 S9         -7.2893    2.3022   50.0403 S.2     1  ZINC000863208514   -0.6000
     10 N10        -6.8771    1.0229   52.3312 N.am    1  ZINC000863208514   -0.6300
     11 C11        -8.2723    0.9605   52.4361 C.ar    1  ZINC000863208514    0.1200
     12 C12        -8.9366   -0.2289   52.1730 C.ar    1  ZINC000863208514   -0.0300
     13 C13       -10.3142   -0.2881   52.2776 C.ar    1  ZINC000863208514   -0.0200
     14 Cl14      -11.1456   -1.7762   51.9492 Cl      1  ZINC000863208514   -0.0300
     15 C15       -11.0310    0.8378   52.6446 C.ar    1  ZINC000863208514   -0.0600
     16 Br16      -12.9148    0.7525   52.7865 Br      1  ZINC000863208514   -0.0100
     17 C17       -10.3718    2.0255   52.9081 C.ar    1  ZINC000863208514   -0.1100
     18 C18        -8.9941    2.0892   52.8096 C.ar    1  ZINC000863208514    0.1100
     19 F19        -8.3507    3.2489   53.0670 F       1  ZINC000863208514   -0.1200
     20 H20        -3.7509    5.6964   51.9042 H       1  ZINC000863208514    0.0800
     21 H21        -4.5847    5.0494   50.4709 H       1  ZINC000863208514    0.0700
     22 H22        -4.6956    4.1928   52.0272 H       1  ZINC000863208514    0.0700
     23 H23        -1.2606    4.1337   52.3967 H       1  ZINC000863208514    0.0700
     24 H24        -0.7936    4.1560   50.6793 H       1  ZINC000863208514    0.0800
     25 H25        -1.5357    5.5950   51.4185 H       1  ZINC000863208514    0.0800
     26 H26        -4.9670    3.1620   49.6806 H       1  ZINC000863208514    0.1200
     27 H27        -4.2518    1.6065   49.1937 H       1  ZINC000863208514    0.1200
     28 H28        -4.4085    1.2947   51.8596 H       1  ZINC000863208514    0.4100
     29 H29        -6.3207    0.6364   53.0255 H       1  ZINC000863208514    0.4200
     30 H30        -8.3782   -1.1078   51.8864 H       1  ZINC000863208514    0.1800
     31 H31       -10.9334    2.9026   53.1941 H       1  ZINC000863208514    0.1600
@<TRIPOS>BOND
     1     1     2    1
     2     1    20    1
     3     1    21    1
     4     1    22    1
     5     2     3    1
     6     2     4   am
     7     3    23    1
     8     3    24    1
     9     3    25    1
    10     4     5    2
    11     4     6    1
    12     6     7    1
    13     6    26    1
    14     6    27    1
    15     7     8   am
    16     7    28    1
    17     8     9    2
    18     8    10   am
    19    10    11    1
    20    10    29    1
    21    11    18   ar
    22    11    12   ar
    23    12    13   ar
    24    12    30    1
    25    13    14    1
    26    13    15   ar
    27    15    16    1
    28    15    17   ar
    29    17    18   ar
    30    17    31    1
    31    18    19    1
@<TRIPOS>SUBSTRUCTURE
     1 ZINC000863208514        1 TEMP              0 ****  ****    0 ROOT


##########                                Name:    ZINC001013196242
##########                DOCK_Rotatable_Bonds:                   5
##########                         Heavy_Atoms:                  24
##########                    Molecular_Weight:              349.86
##########                DOCK_Rotatable_Bonds:                   5
##########                       Formal_Charge:        -3.05474e-07
##########                     HBond_Acceptors:                   6
##########                        HBond_Donors:                   1
##########                         Heavy_Atoms:                  24
##########                          Grid_Score:          -28.269789
##########                     Grid_vdw_energy:          -28.352888
##########                      Grid_es_energy:            0.083099
##########           Internal_energy_repulsive:           14.020861

@<TRIPOS>MOLECULE
ZINC001013196242
 48 51 1 0 0
SMALL
USER_CHARGES


@<TRIPOS>ATOM
      1 C1        -11.8339    1.2354   54.8481 C.3     1  ZINC001013196242   -0.1600
      2 C2        -10.5388    0.5037   54.4901 C.3     1  ZINC001013196242    0.1400
      3 H3        -10.1793   -0.0568   55.3530 H       1  ZINC001013196242    0.0800
      4 C4         -9.4681    1.5207   54.0417 C.3     1  ZINC001013196242   -0.1400
      5 C5         -8.7503    0.7809   52.8820 C.3     1  ZINC001013196242    0.1300
      6 H6         -7.9959    0.0936   53.2647 H       1  ZINC001013196242    0.1100
      7 N7         -8.1591    1.7327   51.9382 N.am    1  ZINC001013196242   -0.7200
      8 C8         -7.0408    1.4043   51.2615 C.2     1  ZINC001013196242    0.5400
      9 O9         -6.5249    0.3201   51.4327 O.2     1  ZINC001013196242   -0.5200
     10 C10        -6.4317    2.3840   50.2920 C.3     1  ZINC001013196242   -0.1400
     11 C11        -6.1958    3.7804   50.8943 C.3     1  ZINC001013196242   -0.0800
     12 C12        -4.8130    3.2728   51.3169 C.3     1  ZINC001013196242   -0.1600
     13 C13        -3.6052    4.0790   51.7813 C.3     1  ZINC001013196242   -0.1700
     14 C14        -4.2643    3.0692   52.7247 C.3     1  ZINC001013196242   -0.1400
     15 C15        -4.9026    2.2600   50.1703 C.3     1  ZINC001013196242   -0.0800
     16 C16        -9.9253    0.0092   52.2309 C.3     1  ZINC001013196242    0.0800
     17 N17       -10.7761   -0.4106   53.3635 N.am    1  ZINC001013196242   -0.6000
     18 C18       -11.6275   -1.4553   53.3613 C.2     1  ZINC001013196242    0.6100
     19 O19       -11.7411   -2.1456   52.3655 O.2     1  ZINC001013196242   -0.5400
     20 C20       -12.4172   -1.7604   54.5590 C.2     1  ZINC001013196242   -0.0400
     21 C21       -11.9253   -2.2062   55.7676 C.2     1  ZINC001013196242   -0.1400
     22 C22       -13.0202   -2.3664   56.6233 C.2     1  ZINC001013196242   -0.1200
     23 Cl23      -12.9588   -2.9082   58.2714 Cl      1  ZINC001013196242   -0.0400
     24 C24       -14.1374   -2.0232   55.9373 C.2     1  ZINC001013196242    0.0400
     25 N25       -13.7834   -1.6481   54.6829 N.pl3   1  ZINC001013196242   -0.4000
     26 C26       -14.7030   -1.2050   53.6321 C.3     1  ZINC001013196242    0.0700
     27 H27       -12.5868    0.5108   55.1584 H       1  ZINC001013196242    0.0700
     28 H28       -11.6435    1.9333   55.6635 H       1  ZINC001013196242    0.0700
     29 H29       -12.1942    1.7835   53.9775 H       1  ZINC001013196242    0.0600
     30 H30        -9.9343    2.4386   53.6836 H       1  ZINC001013196242    0.0900
     31 H31        -8.7724    1.7315   54.8537 H       1  ZINC001013196242    0.0900
     32 H32        -8.5725    2.5994   51.8003 H       1  ZINC001013196242    0.4000
     33 H33        -6.9456    2.4032   49.3309 H       1  ZINC001013196242    0.1000
     34 H34        -6.1608    4.5769   50.1509 H       1  ZINC001013196242    0.1000
     35 H35        -6.8521    4.0111   51.7333 H       1  ZINC001013196242    0.0700
     36 H36        -2.6336    3.8170   51.3624 H       1  ZINC001013196242    0.1000
     37 H37        -3.7570    5.1378   51.9912 H       1  ZINC001013196242    0.0900
     38 H38        -4.8497    3.4637   53.5552 H       1  ZINC001013196242    0.0900
     39 H39        -3.7263    2.1428   52.9263 H       1  ZINC001013196242    0.1000
     40 H40        -4.5221    1.2719   50.4289 H       1  ZINC001013196242    0.0800
     41 H41        -4.5076    2.6333   49.2254 H       1  ZINC001013196242    0.0900
     42 H42       -10.4816    0.6621   51.5585 H       1  ZINC001013196242    0.0800
     43 H43        -9.5543   -0.8634   51.6931 H       1  ZINC001013196242    0.1000
     44 H44       -10.8897   -2.3965   56.0081 H       1  ZINC001013196242    0.1600
     45 H45       -15.1445   -2.0415   56.3270 H       1  ZINC001013196242    0.1800
     46 H46       -14.7508   -0.1161   53.6265 H       1  ZINC001013196242    0.0800
     47 H47       -14.3463   -1.5579   52.6645 H       1  ZINC001013196242    0.1000
     48 H48       -15.6962   -1.6112   53.8234 H       1  ZINC001013196242    0.0900
@<TRIPOS>BOND
     1     1     2    1
     2     1    27    1
     3     1    28    1
     4     1    29    1
     5     2     3    1
     6     2    17    1
     7     2     4    1
     8     4     5    1
     9     4    30    1
    10     4    31    1
    11     5     6    1
    12     5     7    1
    13     5    16    1
    14     7     8   am
    15     7    32    1
    16     8     9    2
    17     8    10    1
    18    10    15    1
    19    10    11    1
    20    10    33    1
    21    11    12    1
    22    11    34    1
    23    11    35    1
    24    12    14    1
    25    12    13    1
    26    12    15    1
    27    13    14    1
    28    13    36    1
    29    13    37    1
    30    14    38    1
    31    14    39    1
    32    15    40    1
    33    15    41    1
    34    16    17    1
    35    16    42    1
    36    16    43    1
    37    17    18   am
    38    18    19    2
    39    18    20    1
    40    20    25    1
    41    20    21    2
    42    21    22    1
    43    21    44    1
    44    22    23    1
    45    22    24    2
    46    24    25    1
    47    24    45    1
    48    25    26    1
    49    26    46    1
    50    26    47    1
    51    26    48    1
@<TRIPOS>SUBSTRUCTURE
     1 ZINC001013196242        1 TEMP              0 ****  ****    0 ROOT


##########                                Name:    ZINC001015955459
##########                DOCK_Rotatable_Bonds:                   6
##########                         Heavy_Atoms:                  24
##########                    Molecular_Weight:             347.844
##########                DOCK_Rotatable_Bonds:                   6
##########                       Formal_Charge:          -0.0200002
##########                     HBond_Acceptors:                   6
##########                        HBond_Donors:                   1
##########                         Heavy_Atoms:                  24
##########                          Grid_Score:          -28.254295
##########                     Grid_vdw_energy:          -28.382954
##########                      Grid_es_energy:            0.128659
##########           Internal_energy_repulsive:           10.925097

@<TRIPOS>MOLECULE
ZINC001015955459
 46 48 1 0 0
SMALL
USER_CHARGES


@<TRIPOS>ATOM
      1 C1         -2.7799    2.7889   50.3485 C.3     1  ZINC001015955459   -0.1500
      2 C2         -3.4586    3.3791   51.5863 C.3     1  ZINC001015955459   -0.0300
      3 C3         -2.9027    4.7793   51.8537 C.3     1  ZINC001015955459   -0.1500
      4 C4         -4.9446    3.4650   51.3514 C.2     1  ZINC001015955459    0.0600
      5 C5         -5.9204    3.3770   52.2960 C.2     1  ZINC001015955459   -0.0800
      6 C6         -5.7229    3.1791   53.7434 C.2     1  ZINC001015955459    0.6100
      7 O7         -4.5979    3.0949   54.1977 O.2     1  ZINC001015955459   -0.5300
      8 N8         -6.7890    3.0914   54.5633 N.am    1  ZINC001015955459   -0.7100
      9 C9         -6.5927    2.8964   56.0019 C.3     1  ZINC001015955459    0.1400
     10 H10        -5.6523    2.3776   56.1881 H       1  ZINC001015955459    0.1000
     11 C11        -6.6096    4.2542   56.7338 C.3     1  ZINC001015955459   -0.1300
     12 C12        -7.7975    4.1657   57.7158 C.3     1  ZINC001015955459    0.0200
     13 N13        -7.9892    2.7099   57.9412 N.3     1  ZINC001015955459   -0.4900
     14 C14        -9.3440    2.4274   58.4338 C.3     1  ZINC001015955459    0.0800
     15 C15        -9.3437    1.1195   59.1824 C.ar    1  ZINC001015955459   -0.1100
     16 C16        -9.6000   -0.0612   58.5108 C.ar    1  ZINC001015955459   -0.1100
     17 C17        -9.5950   -1.2620   59.1961 C.ar    1  ZINC001015955459   -0.1000
     18 C18        -9.3445   -1.2814   60.5549 C.ar    1  ZINC001015955459   -0.1100
     19 C19        -9.0931   -0.0993   61.2288 C.ar    1  ZINC001015955459   -0.0300
     20 Cl20       -8.7789   -0.1228   62.9360 Cl      1  ZINC001015955459   -0.0700
     21 C21        -9.0929    1.1013   60.5417 C.ar    1  ZINC001015955459   -0.1000
     22 C22        -7.7720    2.1004   56.6010 C.3     1  ZINC001015955459    0.0100
     23 N23        -7.1128    3.5003   51.6522 N.2     1  ZINC001015955459   -0.4600
     24 C24        -6.8812    3.6647   50.3842 C.2     1  ZINC001015955459    0.1800
     25 O25        -5.5580    3.6435   50.1705 O.3     1  ZINC001015955459   -0.1900
     26 H26        -2.9753    3.4280   49.4876 H       1  ZINC001015955459    0.0600
     27 H27        -1.7049    2.7267   50.5185 H       1  ZINC001015955459    0.0700
     28 H28        -3.1758    1.7914   50.1581 H       1  ZINC001015955459    0.0600
     29 H29        -3.2631    2.7401   52.4474 H       1  ZINC001015955459    0.1300
     30 H30        -3.3862    5.1998   52.7355 H       1  ZINC001015955459    0.0600
     31 H31        -1.8278    4.7172   52.0236 H       1  ZINC001015955459    0.0700
     32 H32        -3.0980    5.4184   50.9927 H       1  ZINC001015955459    0.0600
     33 H33        -7.6863    3.1574   54.2007 H       1  ZINC001015955459    0.4100
     34 H34        -5.6776    4.4019   57.2793 H       1  ZINC001015955459    0.0800
     35 H35        -6.7640    5.0657   56.0227 H       1  ZINC001015955459    0.0700
     36 H36        -7.5540    4.6666   58.6529 H       1  ZINC001015955459    0.0900
     37 H37        -8.6916    4.6027   57.2714 H       1  ZINC001015955459    0.0500
     38 H38        -9.6623    3.2281   59.1014 H       1  ZINC001015955459    0.0900
     39 H39       -10.0313    2.3630   57.5902 H       1  ZINC001015955459    0.0900
     40 H40        -9.8002   -0.0460   57.4497 H       1  ZINC001015955459    0.1300
     41 H41        -9.7912   -2.1846   58.6701 H       1  ZINC001015955459    0.1300
     42 H42        -9.3451   -2.2191   61.0909 H       1  ZINC001015955459    0.1300
     43 H43        -8.8973    2.0244   61.0672 H       1  ZINC001015955459    0.1300
     44 H44        -8.6617    2.2150   55.9817 H       1  ZINC001015955459    0.0700
     45 H45        -7.5090    1.0471   56.6988 H       1  ZINC001015955459    0.0900
     46 H46        -7.6356    3.7932   49.6223 H       1  ZINC001015955459    0.2600
@<TRIPOS>BOND
     1     1     2    1
     2     1    26    1
     3     1    27    1
     4     1    28    1
     5     2     3    1
     6     2     4    1
     7     2    29    1
     8     3    30    1
     9     3    31    1
    10     3    32    1
    11     4    25    1
    12     4     5    2
    13     5     6    1
    14     5    23    1
    15     6     7    2
    16     6     8   am
    17     8     9    1
    18     8    33    1
    19     9    10    1
    20     9    22    1
    21     9    11    1
    22    11    12    1
    23    11    34    1
    24    11    35    1
    25    12    13    1
    26    12    36    1
    27    12    37    1
    28    13    14    1
    29    13    22    1
    30    14    15    1
    31    14    38    1
    32    14    39    1
    33    15    21   ar
    34    15    16   ar
    35    16    17   ar
    36    16    40    1
    37    17    18   ar
    38    17    41    1
    39    18    19   ar
    40    18    42    1
    41    19    20    1
    42    19    21   ar
    43    21    43    1
    44    22    44    1
    45    22    45    1
    46    23    24    2
    47    24    25    1
    48    24    46    1
@<TRIPOS>SUBSTRUCTURE
     1 ZINC001015955459        1 TEMP              0 ****  ****    0 ROOT


##########                                Name:    ZINC000298969660
##########                DOCK_Rotatable_Bonds:                  10
##########                         Heavy_Atoms:                  29
##########                    Molecular_Weight:             397.474
##########                DOCK_Rotatable_Bonds:                  10
##########                       Formal_Charge:          -0.0100008
##########                     HBond_Acceptors:                   7
##########                        HBond_Donors:                   2
##########                         Heavy_Atoms:                  29
##########                          Grid_Score:          -28.244478
##########                     Grid_vdw_energy:          -25.401836
##########                      Grid_es_energy:           -2.842642
##########           Internal_energy_repulsive:            8.989751

@<TRIPOS>MOLECULE
ZINC000298969660
 56 58 1 0 0
SMALL
USER_CHARGES


@<TRIPOS>ATOM
      1 C1         -6.3006    5.4765   56.5188 C.3     1  ZINC000298969660    0.0800
      2 N2         -5.9156    4.0792   56.3058 N.am    1  ZINC000298969660   -0.6300
      3 C3         -4.6584    3.7616   55.6243 C.3     1  ZINC000298969660    0.1400
      4 C4         -4.8488    3.8997   54.1125 C.3     1  ZINC000298969660    0.0700
      5 H5         -5.6327    3.2188   53.7811 H       1  ZINC000298969660    0.0500
      6 C6         -3.5385    3.5556   53.3993 C.3     1  ZINC000298969660   -0.1500
      7 C7         -3.7196    3.7541   51.8913 C.3     1  ZINC000298969660   -0.1200
      8 C8         -4.1639    5.1961   51.6270 C.3     1  ZINC000298969660   -0.1600
      9 C9         -5.4500    5.4769   52.4087 C.3     1  ZINC000298969660    0.0600
     10 O10        -5.2212    5.2435   53.7998 O.3     1  ZINC000298969660   -0.3600
     11 C11        -6.7180    3.0859   56.7370 C.2     1  ZINC000298969660    0.7100
     12 O12        -6.3977    1.9262   56.5616 O.2     1  ZINC000298969660   -0.5400
     13 N13        -7.8755    3.3781   57.3627 N.am    1  ZINC000298969660   -0.6900
     14 C14        -8.7086    2.3468   57.8104 C.ar    1  ZINC000298969660    0.2000
     15 C15        -9.5296    1.6768   56.9127 C.ar    1  ZINC000298969660   -0.1800
     16 C16       -10.3525    0.6589   57.3548 C.ar    1  ZINC000298969660   -0.0600
     17 C17       -10.3608    0.3045   58.6902 C.ar    1  ZINC000298969660   -0.2300
     18 C18        -9.5423    0.9706   59.5920 C.ar    1  ZINC000298969660    0.1500
     19 O19        -9.5518    0.6212   60.9052 O.3     1  ZINC000298969660   -0.2900
     20 C20       -10.5190    1.2614   61.7400 C.3     1  ZINC000298969660    0.0400
     21 C21       -10.1457    1.0609   63.1862 C.2     1  ZINC000298969660    0.5100
     22 O22       -10.6445    0.1561   63.8214 O.2     1  ZINC000298969660   -0.4900
     23 N23        -9.2576    1.8871   63.7736 N.am    1  ZINC000298969660   -0.6700
     24 C24        -8.9109    1.7010   65.1165 C.ar    1  ZINC000298969660    0.1400
     25 C25        -7.6751    1.1610   65.4477 C.ar    1  ZINC000298969660   -0.1400
     26 C26        -7.3360    0.9785   66.7740 C.ar    1  ZINC000298969660   -0.1000
     27 C27        -8.2257    1.3323   67.7717 C.ar    1  ZINC000298969660   -0.1300
     28 C28        -9.4572    1.8699   67.4452 C.ar    1  ZINC000298969660   -0.1000
     29 C29        -9.7997    2.0611   66.1209 C.ar    1  ZINC000298969660   -0.1200
     30 C30        -8.7113    1.9883   59.1513 C.ar    1  ZINC000298969660   -0.1500
     31 H31        -6.8854    5.8261   55.6679 H       1  ZINC000298969660    0.0600
     32 H32        -6.8984    5.5543   57.4270 H       1  ZINC000298969660    0.0700
     33 H33        -5.4046    6.0889   56.6200 H       1  ZINC000298969660    0.0800
     34 H34        -3.8809    4.4496   55.9569 H       1  ZINC000298969660    0.1000
     35 H35        -4.3645    2.7392   55.8615 H       1  ZINC000298969660    0.0900
     36 H36        -2.7447    4.2096   53.7600 H       1  ZINC000298969660    0.0800
     37 H37        -3.2759    2.5170   53.6009 H       1  ZINC000298969660    0.0700
     38 H38        -2.7744    3.5648   51.3824 H       1  ZINC000298969660    0.0700
     39 H39        -4.4788    3.0651   51.5213 H       1  ZINC000298969660    0.0600
     40 H40        -3.3827    5.8833   51.9520 H       1  ZINC000298969660    0.0700
     41 H41        -4.3486    5.3308   50.5613 H       1  ZINC000298969660    0.0700
     42 H42        -5.7475    6.5147   52.2583 H       1  ZINC000298969660    0.0900
     43 H43        -6.2419    4.8167   52.0548 H       1  ZINC000298969660    0.0400
     44 H44        -8.1309    4.3034   57.5026 H       1  ZINC000298969660    0.4100
     45 H45        -9.5249    1.9520   55.8683 H       1  ZINC000298969660    0.1300
     46 H46       -10.9908    0.1395   56.6554 H       1  ZINC000298969660    0.1300
     47 H47       -11.0051   -0.4917   59.0329 H       1  ZINC000298969660    0.1300
     48 H48       -10.5436    2.3278   61.5155 H       1  ZINC000298969660    0.1000
     49 H49       -11.5020    0.8284   61.5551 H       1  ZINC000298969660    0.1000
     50 H50        -8.8586    2.6107   63.2656 H       1  ZINC000298969660    0.4100
     51 H51        -6.9801    0.8837   64.6688 H       1  ZINC000298969660    0.1300
     52 H52        -6.3750    0.5587   67.0322 H       1  ZINC000298969660    0.1300
     53 H53        -7.9583    1.1883   68.8081 H       1  ZINC000298969660    0.1200
     54 H54       -10.1502    2.1446   68.2266 H       1  ZINC000298969660    0.1300
     55 H55       -10.7617    2.4809   65.8665 H       1  ZINC000298969660    0.1300
     56 H56        -8.0739    2.5077   59.8514 H       1  ZINC000298969660    0.1500
@<TRIPOS>BOND
     1     1     2    1
     2     1    31    1
     3     1    32    1
     4     1    33    1
     5     2     3    1
     6     2    11   am
     7     3     4    1
     8     3    34    1
     9     3    35    1
    10     4     5    1
    11     4    10    1
    12     4     6    1
    13     6     7    1
    14     6    36    1
    15     6    37    1
    16     7     8    1
    17     7    38    1
    18     7    39    1
    19     8     9    1
    20     8    40    1
    21     8    41    1
    22     9    10    1
    23     9    42    1
    24     9    43    1
    25    11    12    2
    26    11    13   am
    27    13    14    1
    28    13    44    1
    29    14    30   ar
    30    14    15   ar
    31    15    16   ar
    32    15    45    1
    33    16    17   ar
    34    16    46    1
    35    17    18   ar
    36    17    47    1
    37    18    19    1
    38    18    30   ar
    39    19    20    1
    40    20    21    1
    41    20    48    1
    42    20    49    1
    43    21    22    2
    44    21    23   am
    45    23    24    1
    46    23    50    1
    47    24    29   ar
    48    24    25   ar
    49    25    26   ar
    50    25    51    1
    51    26    27   ar
    52    26    52    1
    53    27    28   ar
    54    27    53    1
    55    28    29   ar
    56    28    54    1
    57    29    55    1
    58    30    56    1
@<TRIPOS>SUBSTRUCTURE
     1 ZINC000298969660        1 TEMP              0 ****  ****    0 ROOT


##########                                Name:    ZINC000426037318
##########                DOCK_Rotatable_Bonds:                   7
##########                         Heavy_Atoms:                  28
##########                    Molecular_Weight:             421.904
##########                DOCK_Rotatable_Bonds:                   7
##########                       Formal_Charge:         -0.00999981
##########                     HBond_Acceptors:                   9
##########                        HBond_Donors:                   1
##########                         Heavy_Atoms:                  28
##########                          Grid_Score:          -28.236490
##########                     Grid_vdw_energy:          -28.826468
##########                      Grid_es_energy:            0.589977
##########           Internal_energy_repulsive:           18.425421

@<TRIPOS>MOLECULE
ZINC000426037318
 48 50 1 0 0
SMALL
USER_CHARGES


@<TRIPOS>ATOM
      1 C1         -2.5748    3.8183   50.3465 C.3     1  ZINC000426037318    0.0300
      2 O2         -3.9914    3.6382   50.2938 O.3     1  ZINC000426037318   -0.3800
      3 C3         -4.4018    2.2705   50.2399 C.3     1  ZINC000426037318    0.1300
      4 C4         -5.8131    2.1488   50.7542 C.ar    1  ZINC000426037318    0.3900
      5 N5         -6.6509    3.1521   50.5640 N.ar    1  ZINC000426037318   -0.5700
      6 C6         -7.8998    3.0961   50.9947 C.ar    1  ZINC000426037318    0.4400
      7 O7         -8.7443    4.1337   50.7902 O.3     1  ZINC000426037318   -0.2800
      8 C8         -8.5010    4.9522   49.6444 C.3     1  ZINC000426037318    0.0300
      9 C9         -8.3419    1.9295   51.6752 C.ar    1  ZINC000426037318   -0.2000
     10 C10        -9.5948    1.6269   52.2208 C.2     1  ZINC000426037318    0.0500
     11 C11       -10.7542    2.5873   52.1541 C.3     1  ZINC000426037318   -0.1200
     12 C12        -9.6941    0.4268   52.8056 C.2     1  ZINC000426037318   -0.2700
     13 C13       -10.9111   -0.0947   53.4399 C.2     1  ZINC000426037318    0.6000
     14 O14       -11.0725    0.0285   54.6398 O.2     1  ZINC000426037318   -0.5000
     15 N15       -11.8495   -0.7099   52.6934 N.am    1  ZINC000426037318   -0.6600
     16 C16       -13.0107   -1.2076   53.2986 C.ar    1  ZINC000426037318    0.1200
     17 C17       -12.9169   -2.1687   54.2956 C.ar    1  ZINC000426037318   -0.0700
     18 C18       -14.0624   -2.6586   54.8924 C.ar    1  ZINC000426037318   -0.0900
     19 C19       -13.9602   -3.7017   55.9752 C.3     1  ZINC000426037318   -0.1100
     20 C20       -15.3064   -2.1909   54.4958 C.ar    1  ZINC000426037318    0.1300
     21 O21       -16.4330   -2.6737   55.0842 O.3     1  ZINC000426037318   -0.3100
     22 C22       -17.6803   -2.1466   54.6276 C.3     1  ZINC000426037318    0.0200
     23 C23       -15.4019   -1.2302   53.4993 C.ar    1  ZINC000426037318   -0.1800
     24 C24       -14.2572   -0.7351   52.9050 C.ar    1  ZINC000426037318   -0.0300
     25 Cl25      -14.3763    0.4674   51.6585 Cl      1  ZINC000426037318   -0.0600
     26 S26        -8.1695   -0.4377   52.7093 S.3     1  ZINC000426037318    0.2200
     27 C27        -7.4108    0.8954   51.8495 C.ar    1  ZINC000426037318    0.1300
     28 N28        -6.1708    1.0465   51.3720 N.ar    1  ZINC000426037318   -0.5000
     29 H29        -2.3452    4.8832   50.3855 H       1  ZINC000426037318    0.0900
     30 H30        -2.1791    3.3285   51.2363 H       1  ZINC000426037318    0.0500
     31 H31        -2.1195    3.3806   49.4581 H       1  ZINC000426037318    0.0500
     32 H32        -4.3591    1.9186   49.2092 H       1  ZINC000426037318    0.0900
     33 H33        -3.7367    1.6670   50.8577 H       1  ZINC000426037318    0.0800
     34 H34        -8.5623    4.3426   48.7429 H       1  ZINC000426037318    0.0700
     35 H35        -9.2479    5.7447   49.5986 H       1  ZINC000426037318    0.1100
     36 H36        -7.5070    5.3935   49.7176 H       1  ZINC000426037318    0.0700
     37 H37       -11.3240    2.4062   51.2426 H       1  ZINC000426037318    0.0900
     38 H38       -11.3986    2.4398   53.0207 H       1  ZINC000426037318    0.1000
     39 H39       -10.3787    3.6106   52.1505 H       1  ZINC000426037318    0.0800
     40 H40       -11.7209   -0.8080   51.7369 H       1  ZINC000426037318    0.4100
     41 H41       -11.9486   -2.5336   54.6046 H       1  ZINC000426037318    0.1600
     42 H42       -13.8832   -3.2117   56.9457 H       1  ZINC000426037318    0.0700
     43 H43       -14.8485   -4.3332   55.9564 H       1  ZINC000426037318    0.0700
     44 H44       -13.0750   -4.3150   55.8066 H       1  ZINC000426037318    0.0700
     45 H45       -17.7021   -1.0695   54.7933 H       1  ZINC000426037318    0.0600
     46 H46       -17.7944   -2.3530   53.5635 H       1  ZINC000426037318    0.0600
     47 H47       -18.4961   -2.6154   55.1780 H       1  ZINC000426037318    0.1000
     48 H48       -16.3710   -0.8664   53.1911 H       1  ZINC000426037318    0.1500
@<TRIPOS>BOND
     1     1     2    1
     2     1    29    1
     3     1    30    1
     4     1    31    1
     5     2     3    1
     6     3     4    1
     7     3    32    1
     8     3    33    1
     9     4    28   ar
    10     4     5   ar
    11     5     6   ar
    12     6     7    1
    13     6     9   ar
    14     7     8    1
    15     8    34    1
    16     8    35    1
    17     8    36    1
    18     9    27   ar
    19     9    10    1
    20    10    11    1
    21    10    12    2
    22    11    37    1
    23    11    38    1
    24    11    39    1
    25    12    13    1
    26    12    26    1
    27    13    14    2
    28    13    15   am
    29    15    16    1
    30    15    40    1
    31    16    24   ar
    32    16    17   ar
    33    17    18   ar
    34    17    41    1
    35    18    19    1
    36    18    20   ar
    37    19    42    1
    38    19    43    1
    39    19    44    1
    40    20    21    1
    41    20    23   ar
    42    21    22    1
    43    22    45    1
    44    22    46    1
    45    22    47    1
    46    23    24   ar
    47    23    48    1
    48    24    25    1
    49    26    27    1
    50    27    28   ar
@<TRIPOS>SUBSTRUCTURE
     1 ZINC000426037318        1 TEMP              0 ****  ****    0 ROOT


##########                                Name:    ZINC000269287897
##########                DOCK_Rotatable_Bonds:                   8
##########                         Heavy_Atoms:                  23
##########                    Molecular_Weight:             385.301
##########                DOCK_Rotatable_Bonds:                   8
##########                       Formal_Charge:           0.0300002
##########                     HBond_Acceptors:                   5
##########                        HBond_Donors:                   1
##########                         Heavy_Atoms:                  23
##########                          Grid_Score:          -28.230263
##########                     Grid_vdw_energy:          -27.152151
##########                      Grid_es_energy:           -1.078112
##########           Internal_energy_repulsive:           10.550744

@<TRIPOS>MOLECULE
ZINC000269287897
 48 49 1 0 0
SMALL
USER_CHARGES


@<TRIPOS>ATOM
      1 C1          1.7304    2.7977   55.2365 C.3     1  ZINC000269287897    0.0300
      2 O2          1.4514    4.1647   54.9273 O.3     1  ZINC000269287897   -0.3800
      3 C3          0.2469    4.3581   54.1832 C.3     1  ZINC000269287897    0.0600
      4 C4          0.4584    3.8934   52.7408 C.3     1  ZINC000269287897    0.0600
      5 O5         -0.7538    4.0625   52.0033 O.3     1  ZINC000269287897   -0.3800
      6 C6         -1.7357    3.0566   52.2603 C.3     1  ZINC000269287897    0.0700
      7 C7         -3.0119    3.3785   51.4802 C.3     1  ZINC000269287897   -0.1000
      8 H8         -3.2435    4.4421   51.5359 H       1  ZINC000269287897    0.1000
      9 C9         -2.8950    2.9112   50.0053 C.3     1  ZINC000269287897   -0.1200
     10 C10        -4.3649    2.6704   49.6015 C.3     1  ZINC000269287897    0.1000
     11 N11        -5.1278    2.4539   50.8395 N.am    1  ZINC000269287897   -0.6300
     12 C12        -6.4544    2.2284   50.9154 C.2     1  ZINC000269287897    0.7300
     13 O13        -7.1236    2.1899   49.9009 O.2     1  ZINC000269287897   -0.5600
     14 N14        -7.0392    2.0454   52.1158 N.am    1  ZINC000269287897   -0.6900
     15 C15        -8.4171    1.8111   52.1946 C.ar    1  ZINC000269287897    0.1800
     16 C16        -8.9121    0.5212   52.0608 C.ar    1  ZINC000269287897   -0.0600
     17 C17        -7.9665   -0.6294   51.8304 C.3     1  ZINC000269287897   -0.1000
     18 C18       -10.2725    0.2930   52.1396 C.ar    1  ZINC000269287897   -0.0900
     19 C19       -11.1409    1.3477   52.3514 C.ar    1  ZINC000269287897   -0.0800
     20 C20       -12.6241    1.0947   52.4367 C.3     1  ZINC000269287897   -0.1100
     21 C21       -10.6516    2.6343   52.4857 C.ar    1  ZINC000269287897   -0.0900
     22 C22        -9.2919    2.8687   52.4127 C.ar    1  ZINC000269287897   -0.1000
     23 Br23       -8.6233    4.6279   52.5969 Br      1  ZINC000269287897   -0.0500
     24 C24        -4.2014    2.5240   51.9848 C.3     1  ZINC000269287897    0.1400
     25 H25         0.9151    2.3861   55.8314 H       1  ZINC000269287897    0.0400
     26 H26         1.8286    2.2288   54.3119 H       1  ZINC000269287897    0.0400
     27 H27         2.6602    2.7355   55.8019 H       1  ZINC000269287897    0.0900
     28 H28        -0.5575    3.7794   54.6370 H       1  ZINC000269287897    0.0600
     29 H29        -0.0180    5.4154   54.1891 H       1  ZINC000269287897    0.0600
     30 H30         1.2494    4.4856   52.2806 H       1  ZINC000269287897    0.0700
     31 H31         0.7428    2.8412   52.7361 H       1  ZINC000269287897    0.0600
     32 H32        -1.3525    2.0859   51.9453 H       1  ZINC000269287897    0.0600
     33 H33        -1.9586    3.0306   53.3269 H       1  ZINC000269287897    0.0500
     34 H34        -2.4483    3.6907   49.3881 H       1  ZINC000269287897    0.0900
     35 H35        -2.3202    1.9875   49.9378 H       1  ZINC000269287897    0.0800
     36 H36        -4.7524    3.5426   49.0750 H       1  ZINC000269287897    0.0700
     37 H37        -4.4346    1.7889   48.9642 H       1  ZINC000269287897    0.0700
     38 H38        -6.5054    2.0761   52.9251 H       1  ZINC000269287897    0.4100
     39 H39        -7.7675   -1.1313   52.7773 H       1  ZINC000269287897    0.0900
     40 H40        -8.4166   -1.3354   51.1325 H       1  ZINC000269287897    0.0600
     41 H41        -7.0316   -0.2536   51.4148 H       1  ZINC000269287897    0.0600
     42 H42       -10.6579   -0.7104   52.0352 H       1  ZINC000269287897    0.1300
     43 H43       -12.9000    0.8972   53.4725 H       1  ZINC000269287897    0.0700
     44 H44       -13.1634    1.9714   52.0780 H       1  ZINC000269287897    0.0700
     45 H45       -12.8816    0.2328   51.8213 H       1  ZINC000269287897    0.0700
     46 H46       -11.3326    3.4560   52.6510 H       1  ZINC000269287897    0.1400
     47 H47        -3.8610    1.5255   52.2590 H       1  ZINC000269287897    0.0700
     48 H48        -4.6840    3.0077   52.8341 H       1  ZINC000269287897    0.0900
@<TRIPOS>BOND
     1     1     2    1
     2     1    25    1
     3     1    26    1
     4     1    27    1
     5     2     3    1
     6     3     4    1
     7     3    28    1
     8     3    29    1
     9     4     5    1
    10     4    30    1
    11     4    31    1
    12     5     6    1
    13     6     7    1
    14     6    32    1
    15     6    33    1
    16     7     8    1
    17     7    24    1
    18     7     9    1
    19     9    10    1
    20     9    34    1
    21     9    35    1
    22    10    11    1
    23    10    36    1
    24    10    37    1
    25    11    12   am
    26    11    24    1
    27    12    13    2
    28    12    14   am
    29    14    15    1
    30    14    38    1
    31    15    22   ar
    32    15    16   ar
    33    16    17    1
    34    16    18   ar
    35    17    39    1
    36    17    40    1
    37    17    41    1
    38    18    19   ar
    39    18    42    1
    40    19    20    1
    41    19    21   ar
    42    20    43    1
    43    20    44    1
    44    20    45    1
    45    21    22   ar
    46    21    46    1
    47    22    23    1
    48    24    47    1
    49    24    48    1
@<TRIPOS>SUBSTRUCTURE
     1 ZINC000269287897        1 TEMP              0 ****  ****    0 ROOT


##########                                Name:    ZINC000863246516
##########                DOCK_Rotatable_Bonds:                   5
##########                         Heavy_Atoms:                  25
##########                    Molecular_Weight:             356.489
##########                DOCK_Rotatable_Bonds:                   5
##########                       Formal_Charge:         -0.00999938
##########                     HBond_Acceptors:                   5
##########                        HBond_Donors:                   0
##########                         Heavy_Atoms:                  25
##########                          Grid_Score:          -28.226238
##########                     Grid_vdw_energy:          -27.794250
##########                      Grid_es_energy:           -0.431988
##########           Internal_energy_repulsive:           17.231409

@<TRIPOS>MOLECULE
ZINC000863246516
 49 52 1 0 0
SMALL
USER_CHARGES


@<TRIPOS>ATOM
      1 C1        -11.0909   -0.2238   53.2175 C.3     1  ZINC000863246516   -0.0600
      2 C2        -12.2069   -0.8067   54.0457 C.2     1  ZINC000863246516   -0.2000
      3 C3        -12.3747   -2.0761   54.3892 C.2     1  ZINC000863246516    0.0900
      4 C4        -11.4037   -3.1460   53.9610 C.3     1  ZINC000863246516   -0.1000
      5 N5        -13.4685   -2.3656   55.1492 N.am    1  ZINC000863246516   -0.5300
      6 C6        -13.7527   -3.7345   55.5870 C.3     1  ZINC000863246516    0.1200
      7 C7        -12.9642   -4.0358   56.8631 C.3     1  ZINC000863246516   -0.1500
      8 C8        -13.3641   -3.0627   57.9422 C.2     1  ZINC000863246516    0.5400
      9 O9        -14.4980   -3.0665   58.3724 O.2     1  ZINC000863246516   -0.5300
     10 N10       -12.4616   -2.1880   58.4289 N.am    1  ZINC000863246516   -0.6100
     11 C11       -11.0638   -2.0815   57.9953 C.3     1  ZINC000863246516    0.1100
     12 C12       -10.5605   -0.7007   58.4574 C.3     1  ZINC000863246516   -0.1300
     13 H13       -10.5133    0.0630   57.6813 H       1  ZINC000863246516    0.1000
     14 C14        -9.3546   -0.7855   59.4077 C.3     1  ZINC000863246516   -0.1200
     15 C15       -10.3493   -1.1467   60.5226 C.3     1  ZINC000863246516   -0.0600
     16 H16       -10.5363   -2.2170   60.6101 H       1  ZINC000863246516    0.1000
     17 C17       -10.0329   -0.4985   61.8459 C.ar    1  ZINC000863246516   -0.0700
     18 C18        -8.7388   -0.5145   62.3315 C.ar    1  ZINC000863246516   -0.1200
     19 C19        -8.4487    0.0800   63.5453 C.ar    1  ZINC000863246516   -0.1200
     20 C20        -9.4526    0.6909   64.2733 C.ar    1  ZINC000863246516   -0.1200
     21 C21       -10.7465    0.7077   63.7872 C.ar    1  ZINC000863246516   -0.1200
     22 C22       -11.0359    0.1169   62.5713 C.ar    1  ZINC000863246516   -0.1200
     23 C23       -11.4323   -0.3918   59.7001 C.3     1  ZINC000863246516   -0.1100
     24 H24       -11.5724    0.6596   59.9511 H       1  ZINC000863246516    0.1200
     25 C25       -12.7245   -1.1897   59.4705 C.3     1  ZINC000863246516    0.1200
     26 C26       -14.2744   -1.3443   55.4805 C.2     1  ZINC000863246516    0.4800
     27 O27       -15.2922   -1.3988   56.1478 O.2     1  ZINC000863246516   -0.4700
     28 S28       -13.5704    0.0598   54.7742 S.3     1  ZINC000863246516    0.0100
     29 H29       -11.2360    0.8519   53.1180 H       1  ZINC000863246516    0.0700
     30 H30       -10.1361   -0.4179   53.7062 H       1  ZINC000863246516    0.0800
     31 H31       -11.0934   -0.6837   52.2292 H       1  ZINC000863246516    0.0800
     32 H32       -10.6090   -2.6979   53.3646 H       1  ZINC000863246516    0.0900
     33 H33       -10.9729   -3.6198   54.8430 H       1  ZINC000863246516    0.0800
     34 H34       -11.9269   -3.8943   53.3656 H       1  ZINC000863246516    0.0800
     35 H35       -14.8194   -3.8382   55.7859 H       1  ZINC000863246516    0.1000
     36 H36       -13.4592   -4.4343   54.8047 H       1  ZINC000863246516    0.1000
     37 H37       -13.1804   -5.0522   57.1923 H       1  ZINC000863246516    0.1000
     38 H38       -11.8973   -3.9379   56.6626 H       1  ZINC000863246516    0.1000
     39 H39       -10.4688   -2.8692   58.4576 H       1  ZINC000863246516    0.0700
     40 H40       -11.0034   -2.1562   56.9096 H       1  ZINC000863246516    0.0800
     41 H41        -8.6626   -1.5913   59.1632 H       1  ZINC000863246516    0.0800
     42 H42        -8.8540    0.1702   59.5630 H       1  ZINC000863246516    0.0900
     43 H43        -7.9545   -0.9917   61.7628 H       1  ZINC000863246516    0.1200
     44 H44        -7.4377    0.0669   63.9251 H       1  ZINC000863246516    0.1200
     45 H45        -9.2260    1.1547   65.2219 H       1  ZINC000863246516    0.1200
     46 H46       -11.5310    1.1846   64.3561 H       1  ZINC000863246516    0.1200
     47 H47       -12.0468    0.1299   62.1916 H       1  ZINC000863246516    0.1200
     48 H48       -13.5238   -0.5159   59.1620 H       1  ZINC000863246516    0.0700
     49 H49       -13.0089   -1.7028   60.3891 H       1  ZINC000863246516    0.0700
@<TRIPOS>BOND
     1     1     2    1
     2     1    29    1
     3     1    30    1
     4     1    31    1
     5     2    28    1
     6     2     3    2
     7     3     4    1
     8     3     5    1
     9     4    32    1
    10     4    33    1
    11     4    34    1
    12     5     6    1
    13     5    26   am
    14     6     7    1
    15     6    35    1
    16     6    36    1
    17     7     8    1
    18     7    37    1
    19     7    38    1
    20     8     9    2
    21     8    10   am
    22    10    25    1
    23    10    11    1
    24    11    12    1
    25    11    39    1
    26    11    40    1
    27    12    13    1
    28    12    23    1
    29    12    14    1
    30    14    15    1
    31    14    41    1
    32    14    42    1
    33    15    16    1
    34    15    17    1
    35    15    23    1
    36    17    22   ar
    37    17    18   ar
    38    18    19   ar
    39    18    43    1
    40    19    20   ar
    41    19    44    1
    42    20    21   ar
    43    20    45    1
    44    21    22   ar
    45    21    46    1
    46    22    47    1
    47    23    24    1
    48    23    25    1
    49    25    48    1
    50    25    49    1
    51    26    27    2
    52    26    28    1
@<TRIPOS>SUBSTRUCTURE
     1 ZINC000863246516        1 TEMP              0 ****  ****    0 ROOT


##########                                Name:    ZINC000971513996
##########                DOCK_Rotatable_Bonds:                   6
##########                         Heavy_Atoms:                  27
##########                    Molecular_Weight:             369.464
##########                DOCK_Rotatable_Bonds:                   6
##########                       Formal_Charge:          -0.0300002
##########                     HBond_Acceptors:                   6
##########                        HBond_Donors:                   1
##########                         Heavy_Atoms:                  27
##########                          Grid_Score:          -28.221310
##########                     Grid_vdw_energy:          -27.229969
##########                      Grid_es_energy:           -0.991340
##########           Internal_energy_repulsive:           27.941563

@<TRIPOS>MOLECULE
ZINC000971513996
 54 57 1 0 0
SMALL
USER_CHARGES


@<TRIPOS>ATOM
      1 C1        -15.4170   -2.9198   59.9424 C.3     1  ZINC000971513996   -0.1600
      2 C2        -16.2984   -3.4915   58.8300 C.3     1  ZINC000971513996   -0.1400
      3 C3        -15.9611   -2.8014   57.5067 C.3     1  ZINC000971513996    0.0800
      4 H4        -16.6088   -3.1882   56.7199 H       1  ZINC000971513996    0.0800
      5 O5        -16.1618   -1.3928   57.6393 O.3     1  ZINC000971513996   -0.3600
      6 C6        -17.5007   -1.0258   57.9782 C.3     1  ZINC000971513996    0.0200
      7 C7        -14.5220   -3.0725   57.1513 C.2     1  ZINC000971513996    0.5400
      8 O8        -13.9718   -4.0695   57.5686 O.2     1  ZINC000971513996   -0.5100
      9 N9        -13.8464   -2.2071   56.3696 N.am    1  ZINC000971513996   -0.6400
     10 C10       -14.1343   -0.9346   55.6862 C.3     1  ZINC000971513996    0.1000
     11 C11       -12.6403   -0.5897   55.8374 C.3     1  ZINC000971513996   -0.1200
     12 H12       -12.1972   -0.0740   54.9854 H       1  ZINC000971513996    0.1100
     13 C13       -12.3556    0.0815   57.1833 C.3     1  ZINC000971513996   -0.1200
     14 C14       -11.0065   -0.4097   57.7162 C.3     1  ZINC000971513996    0.1100
     15 N15       -11.0675   -1.8681   57.8452 N.am    1  ZINC000971513996   -0.6000
     16 C16       -10.8125   -2.4451   59.0363 C.2     1  ZINC000971513996    0.5900
     17 O17       -10.8617   -3.6553   59.1487 O.2     1  ZINC000971513996   -0.5200
     18 C18       -10.4747   -1.6116   60.1998 C.2     1  ZINC000971513996    0.0200
     19 C19       -11.3594   -0.8856   60.9320 C.2     1  ZINC000971513996   -0.1000
     20 C20       -10.6353   -0.2303   61.9572 C.ar    1  ZINC000971513996   -0.1100
     21 C21       -11.0056    0.6354   62.9941 C.ar    1  ZINC000971513996   -0.0600
     22 C22       -10.0563    1.1174   63.8478 C.ar    1  ZINC000971513996   -0.1200
     23 C23       -10.4582    2.0488   64.9623 C.3     1  ZINC000971513996   -0.1100
     24 C24        -8.7231    0.7572   63.6994 C.ar    1  ZINC000971513996   -0.0800
     25 C25        -8.3339   -0.0925   62.6880 C.ar    1  ZINC000971513996   -0.1300
     26 C26        -9.2836   -0.5969   61.8042 C.ar    1  ZINC000971513996    0.1100
     27 N27        -9.2081   -1.4471   60.7263 N.pl3   1  ZINC000971513996   -0.5800
     28 C28       -11.4019   -2.6993   56.6963 C.3     1  ZINC000971513996    0.0700
     29 C29       -12.4921   -2.1039   55.8212 C.3     1  ZINC000971513996    0.1300
     30 H30       -12.4425   -2.4973   54.8059 H       1  ZINC000971513996    0.1100
     31 H31       -15.7274   -3.3348   60.9013 H       1  ZINC000971513996    0.0600
     32 H32       -14.3763   -3.1824   59.7526 H       1  ZINC000971513996    0.0600
     33 H33       -15.5195   -1.8348   59.9658 H       1  ZINC000971513996    0.0600
     34 H34       -16.1177   -4.5624   58.7376 H       1  ZINC000971513996    0.0800
     35 H35       -17.3470   -3.3194   59.0725 H       1  ZINC000971513996    0.0800
     36 H36       -18.1682   -1.2883   57.1575 H       1  ZINC000971513996    0.0400
     37 H37       -17.8062   -1.5576   58.8793 H       1  ZINC000971513996    0.0500
     38 H38       -17.5489    0.0484   58.1563 H       1  ZINC000971513996    0.0900
     39 H39       -14.4496   -1.0586   54.6501 H       1  ZINC000971513996    0.0900
     40 H40       -14.7925   -0.2757   56.2526 H       1  ZINC000971513996    0.0800
     41 H41       -12.3230    1.1630   57.0511 H       1  ZINC000971513996    0.0900
     42 H42       -13.1426   -0.1760   57.8922 H       1  ZINC000971513996    0.0700
     43 H43       -10.2142   -0.1352   57.0197 H       1  ZINC000971513996    0.0800
     44 H44       -10.8113    0.0378   58.6907 H       1  ZINC000971513996    0.1000
     45 H45       -12.4240   -0.8200   60.7624 H       1  ZINC000971513996    0.1500
     46 H46       -12.0398    0.9212   63.1174 H       1  ZINC000971513996    0.1200
     47 H47       -10.7035    1.4673   65.8510 H       1  ZINC000971513996    0.0700
     48 H48        -9.6328    2.7245   65.1866 H       1  ZINC000971513996    0.0600
     49 H49       -11.3290    2.6281   64.6555 H       1  ZINC000971513996    0.0600
     50 H50        -7.9843    1.1475   64.3837 H       1  ZINC000971513996    0.1300
     51 H51        -7.2948   -0.3665   62.5805 H       1  ZINC000971513996    0.1200
     52 H52        -8.3984   -1.8622   60.3902 H       1  ZINC000971513996    0.4200
     53 H53       -10.5089   -2.8289   56.0849 H       1  ZINC000971513996    0.0800
     54 H54       -11.7255   -3.6773   57.0528 H       1  ZINC000971513996    0.1200
@<TRIPOS>BOND
     1     1     2    1
     2     1    31    1
     3     1    32    1
     4     1    33    1
     5     2     3    1
     6     2    34    1
     7     2    35    1
     8     3     4    1
     9     3     5    1
    10     3     7    1
    11     5     6    1
    12     6    36    1
    13     6    37    1
    14     6    38    1
    15     7     8    2
    16     7     9   am
    17     9    29    1
    18     9    10    1
    19    10    11    1
    20    10    39    1
    21    10    40    1
    22    11    12    1
    23    11    29    1
    24    11    13    1
    25    13    14    1
    26    13    41    1
    27    13    42    1
    28    14    15    1
    29    14    43    1
    30    14    44    1
    31    15    16   am
    32    15    28    1
    33    16    17    2
    34    16    18    1
    35    18    27    1
    36    18    19    2
    37    19    20    1
    38    19    45    1
    39    20    26   ar
    40    20    21   ar
    41    21    22   ar
    42    21    46    1
    43    22    23    1
    44    22    24   ar
    45    23    47    1
    46    23    48    1
    47    23    49    1
    48    24    25   ar
    49    24    50    1
    50    25    26   ar
    51    25    51    1
    52    26    27    1
    53    27    52    1
    54    28    29    1
    55    28    53    1
    56    28    54    1
    57    29    30    1
@<TRIPOS>SUBSTRUCTURE
     1 ZINC000971513996        1 TEMP              0 ****  ****    0 ROOT


##########                                Name:    ZINC000945148121
##########                DOCK_Rotatable_Bonds:                   6
##########                         Heavy_Atoms:                  24
##########                    Molecular_Weight:             332.446
##########                DOCK_Rotatable_Bonds:                   6
##########                       Formal_Charge:           0.0100009
##########                     HBond_Acceptors:                   6
##########                        HBond_Donors:                   2
##########                         Heavy_Atoms:                  24
##########                          Grid_Score:          -28.152750
##########                     Grid_vdw_energy:          -25.910055
##########                      Grid_es_energy:           -2.242695
##########           Internal_energy_repulsive:           21.066307

@<TRIPOS>MOLECULE
ZINC000945148121
 52 54 1 0 0
SMALL
USER_CHARGES


@<TRIPOS>ATOM
      1 O1        -10.6943   -0.1612   62.6833 O.2     1  ZINC000945148121   -0.5100
      2 C2         -9.6028    0.0230   62.1878 C.2     1  ZINC000945148121    0.5200
      3 C3         -8.4687    0.5411   63.0343 C.3     1  ZINC000945148121   -0.0500
      4 C4         -8.9780    0.8583   64.4167 C.2     1  ZINC000945148121    0.0100
      5 C5         -9.9283    1.7623   64.7219 C.2     1  ZINC000945148121   -0.0500
      6 N6        -10.0840    1.7297   66.0814 N.pl3   1  ZINC000945148121   -0.5700
      7 C7         -9.2228    0.8061   66.5601 C.2     1  ZINC000945148121    0.1800
      8 N8         -8.5682    0.2855   65.5582 N.2     1  ZINC000945148121   -0.4700
      9 N9         -9.4025   -0.2409   60.8814 N.am    1  ZINC000945148121   -0.7300
     10 C10       -10.5050   -0.7445   60.0585 C.3     1  ZINC000945148121    0.1500
     11 C11       -10.5740    0.0539   58.7546 C.3     1  ZINC000945148121   -0.1400
     12 C12       -11.7491   -0.4523   57.9121 C.3     1  ZINC000945148121    0.1100
     13 N13       -11.6065   -1.9026   57.7248 N.am    1  ZINC000945148121   -0.6100
     14 C14       -11.6259   -2.4406   56.4892 C.2     1  ZINC000945148121    0.5200
     15 O15       -11.5087   -3.6394   56.3480 O.2     1  ZINC000945148121   -0.5400
     16 C16       -11.7932   -1.5525   55.2833 C.3     1  ZINC000945148121   -0.1000
     17 C17       -11.4637   -2.3267   54.0358 C.3     1  ZINC000945148121   -0.1200
     18 C18       -10.8083   -1.4485   52.9529 C.3     1  ZINC000945148121   -0.1200
     19 C19       -11.4718   -0.0641   52.8239 C.3     1  ZINC000945148121   -0.1200
     20 C20       -12.9728   -0.1357   52.9004 C.3     1  ZINC000945148121   -0.1200
     21 C21       -13.4013    0.1126   54.3612 C.3     1  ZINC000945148121   -0.1200
     22 C22       -13.2568   -1.0743   55.1910 C.3     1  ZINC000945148121   -0.1000
     23 C23       -11.4419   -2.7552   58.9101 C.3     1  ZINC000945148121    0.1100
     24 C24       -10.2703   -2.2232   59.7413 C.3     1  ZINC000945148121   -0.1400
     25 H25        -7.6883   -0.2172   63.0998 H       1  ZINC000945148121    0.1000
     26 H26        -8.0604    1.4445   62.5813 H       1  ZINC000945148121    0.1000
     27 H27       -10.4643    2.3923   64.0275 H       1  ZINC000945148121    0.1800
     28 H28       -10.6983    2.2691   66.6035 H       1  ZINC000945148121    0.4200
     29 H29        -9.0992    0.5395   67.5993 H       1  ZINC000945148121    0.2100
     30 H30        -8.5285   -0.0972   60.4860 H       1  ZINC000945148121    0.4000
     31 H31       -11.4435   -0.6341   60.6017 H       1  ZINC000945148121    0.0900
     32 H32       -10.7178    1.1102   58.9820 H       1  ZINC000945148121    0.0800
     33 H33        -9.6454   -0.0760   58.1989 H       1  ZINC000945148121    0.0700
     34 H34       -12.6860   -0.2408   58.4275 H       1  ZINC000945148121    0.0700
     35 H35       -11.7434    0.0438   56.9416 H       1  ZINC000945148121    0.1000
     36 H36       -11.1311   -0.6908   55.3685 H       1  ZINC000945148121    0.1000
     37 H37       -10.7816   -3.1369   54.2934 H       1  ZINC000945148121    0.0700
     38 H38       -12.3818   -2.7555   53.6340 H       1  ZINC000945148121    0.0700
     39 H39        -9.7555   -1.3120   53.2005 H       1  ZINC000945148121    0.0600
     40 H40       -10.8777   -1.9622   51.9940 H       1  ZINC000945148121    0.0700
     41 H41       -11.1079    0.5775   53.6265 H       1  ZINC000945148121    0.0600
     42 H42       -11.1880    0.3754   51.8677 H       1  ZINC000945148121    0.0600
     43 H43       -13.4091    0.6277   52.2562 H       1  ZINC000945148121    0.0600
     44 H44       -13.3090   -1.1226   52.5829 H       1  ZINC000945148121    0.0700
     45 H45       -12.7881    0.9115   54.7780 H       1  ZINC000945148121    0.0600
     46 H46       -14.4447    0.4275   54.3744 H       1  ZINC000945148121    0.0600
     47 H47       -13.8640   -1.8756   54.7699 H       1  ZINC000945148121    0.0700
     48 H48       -13.6186   -0.8497   56.1944 H       1  ZINC000945148121    0.0700
     49 H49       -12.3538   -2.7315   59.5067 H       1  ZINC000945148121    0.0700
     50 H50       -11.2335   -3.7786   58.5979 H       1  ZINC000945148121    0.1000
     51 H51        -9.3445   -2.3316   59.1763 H       1  ZINC000945148121    0.0700
     52 H52       -10.1979   -2.7876   60.6710 H       1  ZINC000945148121    0.0800
@<TRIPOS>BOND
     1     1     2    2
     2     2     3    1
     3     2     9   am
     4     3     4    1
     5     3    25    1
     6     3    26    1
     7     4     8    1
     8     4     5    2
     9     5     6    1
    10     5    27    1
    11     6     7    1
    12     6    28    1
    13     7     8    2
    14     7    29    1
    15     9    10    1
    16     9    30    1
    17    10    24    1
    18    10    11    1
    19    10    31    1
    20    11    12    1
    21    11    32    1
    22    11    33    1
    23    12    13    1
    24    12    34    1
    25    12    35    1
    26    13    14   am
    27    13    23    1
    28    14    15    2
    29    14    16    1
    30    16    22    1
    31    16    17    1
    32    16    36    1
    33    17    18    1
    34    17    37    1
    35    17    38    1
    36    18    19    1
    37    18    39    1
    38    18    40    1
    39    19    20    1
    40    19    41    1
    41    19    42    1
    42    20    21    1
    43    20    43    1
    44    20    44    1
    45    21    22    1
    46    21    45    1
    47    21    46    1
    48    22    47    1
    49    22    48    1
    50    23    24    1
    51    23    49    1
    52    23    50    1
    53    24    51    1
    54    24    52    1
@<TRIPOS>SUBSTRUCTURE
     1 ZINC000945148121        1 TEMP              0 ****  ****    0 ROOT


##########                                Name:    ZINC000477669194
##########                DOCK_Rotatable_Bonds:                   6
##########                         Heavy_Atoms:                  26
##########                    Molecular_Weight:             387.483
##########                DOCK_Rotatable_Bonds:                   6
##########                       Formal_Charge:         4.47035e-07
##########                     HBond_Acceptors:                   8
##########                        HBond_Donors:                   2
##########                         Heavy_Atoms:                  26
##########                          Grid_Score:          -28.150738
##########                     Grid_vdw_energy:          -24.106140
##########                      Grid_es_energy:           -4.044599
##########           Internal_energy_repulsive:           19.792503

@<TRIPOS>MOLECULE
ZINC000477669194
 43 45 1 0 0
SMALL
USER_CHARGES


@<TRIPOS>ATOM
      1 C1         -8.0787    2.3781   56.7095 C.3     1  ZINC000477669194   -0.0800
      2 C2         -8.9705    1.6488   55.7378 C.2     1  ZINC000477669194    0.0500
      3 N3        -10.0528    1.0282   56.0580 N.2     1  ZINC000477669194   -0.4900
      4 C4        -10.7227    0.4374   55.0789 C.2     1  ZINC000477669194    0.1200
      5 C5        -11.9833   -0.3115   55.3011 C.ar    1  ZINC000477669194   -0.0600
      6 C6        -12.7143   -0.7880   54.2160 C.ar    1  ZINC000477669194   -0.0800
      7 C7        -13.8875   -1.4846   54.4278 C.ar    1  ZINC000477669194   -0.1400
      8 C8        -14.3409   -1.7118   55.7150 C.ar    1  ZINC000477669194   -0.0900
      9 C9        -13.6242   -1.2434   56.8001 C.ar    1  ZINC000477669194   -0.1300
     10 C10       -12.4410   -0.5476   56.6027 C.ar    1  ZINC000477669194    0.1800
     11 N11       -11.7147   -0.0736   57.6987 N.am    1  ZINC000477669194   -0.6500
     12 C12       -11.3180   -0.9264   58.6639 C.2     1  ZINC000477669194    0.5600
     13 O13       -11.5919   -2.1083   58.5813 O.2     1  ZINC000477669194   -0.5200
     14 C14       -10.5515   -0.4262   59.8205 C.ar    1  ZINC000477669194   -0.1500
     15 C15       -10.7934    0.8575   60.3189 C.ar    1  ZINC000477669194   -0.0600
     16 C16       -10.0770    1.3211   61.3984 C.ar    1  ZINC000477669194   -0.1400
     17 C17        -9.1122    0.5133   61.9943 C.ar    1  ZINC000477669194    0.1700
     18 N18        -8.3900    0.9848   63.0850 N.am    1  ZINC000477669194   -1.0600
     19 S19        -8.7447    0.4436   64.6094 S.o2    1  ZINC000477669194    2.6100
     20 C20        -7.5710    1.3147   65.6836 C.3     1  ZINC000477669194   -0.6700
     21 O21       -10.0696    0.9007   64.8441 O.2     1  ZINC000477669194   -0.9400
     22 O22        -8.4457   -0.9450   64.5666 O.2     1  ZINC000477669194   -0.9500
     23 C23        -8.8694   -0.7655   61.5007 C.ar    1  ZINC000477669194   -0.1600
     24 C24        -9.5858   -1.2368   60.4245 C.ar    1  ZINC000477669194   -0.0300
     25 C25       -10.1570    0.5776   53.8629 C.2     1  ZINC000477669194   -0.2600
     26 S26        -8.6911    1.5357   54.0555 S.3     1  ZINC000477669194    0.1500
     27 H27        -7.2373    2.8157   56.1724 H       1  ZINC000477669194    0.0800
     28 H28        -8.6465    3.1680   57.2011 H       1  ZINC000477669194    0.0900
     29 H29        -7.7075    1.6778   57.4578 H       1  ZINC000477669194    0.0900
     30 H30       -12.3642   -0.6124   53.2095 H       1  ZINC000477669194    0.1300
     31 H31       -14.4537   -1.8533   53.5853 H       1  ZINC000477669194    0.1300
     32 H32       -15.2594   -2.2576   55.8727 H       1  ZINC000477669194    0.1300
     33 H33       -13.9836   -1.4233   57.8025 H       1  ZINC000477669194    0.1500
     34 H34       -11.4963    0.8692   57.7647 H       1  ZINC000477669194    0.4200
     35 H35       -11.5414    1.4847   59.8569 H       1  ZINC000477669194    0.1300
     36 H36       -10.2630    2.3127   61.7836 H       1  ZINC000477669194    0.1400
     37 H37        -7.6784    1.6307   62.9530 H       1  ZINC000477669194    0.4300
     38 H38        -7.7790    2.3844   65.6570 H       1  ZINC000477669194    0.1300
     39 H39        -7.6740    0.9499   66.7056 H       1  ZINC000477669194    0.1400
     40 H40        -6.5547    1.1334   65.3337 H       1  ZINC000477669194    0.1300
     41 H41        -8.1206   -1.3899   61.9654 H       1  ZINC000477669194    0.1700
     42 H42        -9.3971   -2.2291   60.0423 H       1  ZINC000477669194    0.1500
     43 H43       -10.5372    0.1769   52.9349 H       1  ZINC000477669194    0.1800
@<TRIPOS>BOND
     1     1     2    1
     2     1    27    1
     3     1    28    1
     4     1    29    1
     5     2    26    1
     6     2     3    2
     7     3     4    1
     8     4     5    1
     9     4    25    2
    10     5    10   ar
    11     5     6   ar
    12     6     7   ar
    13     6    30    1
    14     7     8   ar
    15     7    31    1
    16     8     9   ar
    17     8    32    1
    18     9    10   ar
    19     9    33    1
    20    10    11    1
    21    11    12   am
    22    11    34    1
    23    12    13    2
    24    12    14    1
    25    14    24   ar
    26    14    15   ar
    27    15    16   ar
    28    15    35    1
    29    16    17   ar
    30    16    36    1
    31    17    18    1
    32    17    23   ar
    33    18    19   am
    34    18    37    1
    35    19    20    1
    36    19    21    2
    37    19    22    2
    38    20    38    1
    39    20    39    1
    40    20    40    1
    41    23    24   ar
    42    23    41    1
    43    24    42    1
    44    25    26    1
    45    25    43    1
@<TRIPOS>SUBSTRUCTURE
     1 ZINC000477669194        1 TEMP              0 ****  ****    0 ROOT


##########                                Name:    ZINC001345266033
##########                DOCK_Rotatable_Bonds:                   4
##########                         Heavy_Atoms:                  29
##########                    Molecular_Weight:               389.5
##########                DOCK_Rotatable_Bonds:                   4
##########                       Formal_Charge:          -0.0100001
##########                     HBond_Acceptors:                   6
##########                        HBond_Donors:                   0
##########                         Heavy_Atoms:                  29
##########                          Grid_Score:          -28.143091
##########                     Grid_vdw_energy:          -28.241638
##########                      Grid_es_energy:            0.098546
##########           Internal_energy_repulsive:           18.797031

@<TRIPOS>MOLECULE
ZINC001345266033
 56 61 1 0 0
SMALL
USER_CHARGES


@<TRIPOS>ATOM
      1 C1        -12.1199    1.7158   64.4992 C.ar    1  ZINC001345266033   -0.1100
      2 C2        -12.8006    1.3129   63.3532 C.ar    1  ZINC001345266033   -0.0900
      3 C3        -12.1847    0.5526   62.4020 C.ar    1  ZINC001345266033   -0.1100
      4 C4        -10.8522    0.1745   62.5824 C.ar    1  ZINC001345266033    0.0000
      5 C5        -10.1546    0.5831   63.7482 C.ar    1  ZINC001345266033   -0.1100
      6 C6        -10.8198    1.3643   64.7059 C.ar    1  ZINC001345266033   -0.0900
      7 C7         -8.8157    0.1895   63.9042 C.ar    1  ZINC001345266033    0.1700
      8 N8         -8.2180   -0.5407   62.9938 N.ar    1  ZINC001345266033   -0.4800
      9 C9         -8.8060   -0.9567   61.8845 C.ar    1  ZINC001345266033    0.0900
     10 C10       -10.1288   -0.6385   61.6054 C.ar    1  ZINC001345266033   -0.0700
     11 C11       -10.7812   -1.1044   60.3671 C.2     1  ZINC001345266033    0.2300
     12 N12       -11.8453   -1.8710   60.2855 N.2     1  ZINC001345266033   -0.2600
     13 N13       -12.1413   -2.0793   59.0524 N.2     1  ZINC001345266033   -0.3000
     14 C14       -11.2854   -1.4592   58.2715 C.2     1  ZINC001345266033    0.3600
     15 N15       -11.2900   -1.4569   56.8878 N.3     1  ZINC001345266033   -0.4600
     16 C16       -12.1201   -2.5477   56.3628 C.3     1  ZINC001345266033    0.0600
     17 C17       -11.9339   -2.6612   54.8485 C.3     1  ZINC001345266033   -0.1100
     18 C18       -12.4040   -1.3617   54.1839 C.3     1  ZINC001345266033   -0.0800
     19 C19       -11.6651   -0.1875   54.8347 C.3     1  ZINC001345266033   -0.1300
     20 C20       -10.3825    0.3039   54.1656 C.3     1  ZINC001345266033   -0.1600
     21 C21       -11.6571    1.1478   54.0926 C.3     1  ZINC001345266033   -0.1700
     22 C22       -11.7297   -0.1550   56.3645 C.3     1  ZINC001345266033    0.1100
     23 N23       -10.3943   -0.8133   59.0787 N.pl3   1  ZINC001345266033   -0.4600
     24 C24        -9.2576    0.0111   58.6608 C.3     1  ZINC001345266033    0.1000
     25 C25        -9.3566    1.3880   59.3205 C.3     1  ZINC001345266033   -0.1400
     26 H26        -9.0155    1.3399   60.3547 H       1  ZINC001345266033    0.1000
     27 C27       -10.8097    1.9178   59.2534 C.3     1  ZINC001345266033   -0.1500
     28 C28       -10.5938    3.4173   58.9258 C.3     1  ZINC001345266033    0.0500
     29 O29        -9.4638    3.4063   58.0272 O.3     1  ZINC001345266033   -0.3700
     30 C30        -8.5362    2.4253   58.5297 C.3     1  ZINC001345266033    0.0300
     31 H31       -12.6297    2.3207   65.2345 H       1  ZINC001345266033    0.1300
     32 H32       -13.8308    1.6061   63.2152 H       1  ZINC001345266033    0.1300
     33 H33       -12.7230    0.2455   61.5175 H       1  ZINC001345266033    0.1600
     34 H34       -10.3048    1.6849   65.5994 H       1  ZINC001345266033    0.1400
     35 H35        -8.2708    0.4926   64.7859 H       1  ZINC001345266033    0.1700
     36 H36        -8.2462   -1.5556   61.1813 H       1  ZINC001345266033    0.1700
     37 H37       -11.8267   -3.4853   56.8349 H       1  ZINC001345266033    0.0700
     38 H38       -13.1677   -2.3445   56.5845 H       1  ZINC001345266033    0.0500
     39 H39       -10.8803   -2.8252   54.6223 H       1  ZINC001345266033    0.0800
     40 H40       -12.5226   -3.4970   54.4707 H       1  ZINC001345266033    0.0800
     41 H41       -12.1764   -1.3922   53.1184 H       1  ZINC001345266033    0.0700
     42 H42       -13.4778   -1.2441   54.3288 H       1  ZINC001345266033    0.0700
     43 H43        -9.5806    0.6581   54.8133 H       1  ZINC001345266033    0.0900
     44 H44       -10.0626   -0.2045   53.2559 H       1  ZINC001345266033    0.0900
     45 H45       -12.1757    1.1946   53.1351 H       1  ZINC001345266033    0.1000
     46 H46       -11.6937    2.0572   54.6924 H       1  ZINC001345266033    0.1000
     47 H47       -12.7540    0.0393   56.6825 H       1  ZINC001345266033    0.0600
     48 H48       -11.0738    0.6302   56.7408 H       1  ZINC001345266033    0.0800
     49 H49        -8.3282   -0.4710   58.9639 H       1  ZINC001345266033    0.1100
     50 H50        -9.2709    0.1257   57.5770 H       1  ZINC001345266033    0.1100
     51 H51       -11.3680    1.4224   58.4591 H       1  ZINC001345266033    0.0800
     52 H52       -11.3122    1.7978   60.2133 H       1  ZINC001345266033    0.0900
     53 H53       -11.4725    3.8327   58.4324 H       1  ZINC001345266033    0.1000
     54 H54       -10.3593    3.9780   59.8306 H       1  ZINC001345266033    0.0600
     55 H55        -7.8088    2.9045   59.1848 H       1  ZINC001345266033    0.0600
     56 H56        -8.0256    1.9383   57.6989 H       1  ZINC001345266033    0.0900
@<TRIPOS>BOND
     1     1     6   ar
     2     1     2   ar
     3     1    31    1
     4     2     3   ar
     5     2    32    1
     6     3     4   ar
     7     3    33    1
     8     4    10   ar
     9     4     5   ar
    10     5     6   ar
    11     5     7   ar
    12     6    34    1
    13     7     8   ar
    14     7    35    1
    15     8     9   ar
    16     9    10   ar
    17     9    36    1
    18    10    11    1
    19    11    23    1
    20    11    12    2
    21    12    13    1
    22    13    14    2
    23    14    15    1
    24    14    23    1
    25    15    22    1
    26    15    16    1
    27    16    17    1
    28    16    37    1
    29    16    38    1
    30    17    18    1
    31    17    39    1
    32    17    40    1
    33    18    19    1
    34    18    41    1
    35    18    42    1
    36    19    21    1
    37    19    20    1
    38    19    22    1
    39    20    21    1
    40    20    43    1
    41    20    44    1
    42    21    45    1
    43    21    46    1
    44    22    47    1
    45    22    48    1
    46    23    24    1
    47    24    25    1
    48    24    49    1
    49    24    50    1
    50    25    26    1
    51    25    30    1
    52    25    27    1
    53    27    28    1
    54    27    51    1
    55    27    52    1
    56    28    29    1
    57    28    53    1
    58    28    54    1
    59    29    30    1
    60    30    55    1
    61    30    56    1
@<TRIPOS>SUBSTRUCTURE
     1 ZINC001345266033        1 TEMP              0 ****  ****    0 ROOT


##########                                Name:    ZINC001345966764
##########                DOCK_Rotatable_Bonds:                  10
##########                         Heavy_Atoms:                  22
##########                    Molecular_Weight:             333.258
##########                DOCK_Rotatable_Bonds:                  10
##########                       Formal_Charge:           0.0099997
##########                     HBond_Acceptors:                  11
##########                        HBond_Donors:                   4
##########                         Heavy_Atoms:                  22
##########                          Grid_Score:          -28.135515
##########                     Grid_vdw_energy:          -27.444111
##########                      Grid_es_energy:           -0.691405
##########           Internal_energy_repulsive:            7.958387

@<TRIPOS>MOLECULE
ZINC001345966764
 38 38 1 0 0
SMALL
USER_CHARGES


@<TRIPOS>ATOM
      1 N1        -14.4539   -6.1123   56.2484 N.3     1  ZINC001345966764   -0.8400
      2 C2        -14.9264   -5.0039   57.0888 C.3     1  ZINC001345966764    0.0200
      3 C3        -14.7450   -3.6824   56.3394 C.3     1  ZINC001345966764    0.2800
      4 F4        -15.6231   -3.6390   55.2511 F       1  ZINC001345966764   -0.1900
      5 F5        -15.0187   -2.6156   57.2022 F       1  ZINC001345966764   -0.1800
      6 C6        -13.3040   -3.5749   55.8367 C.3     1  ZINC001345966764    0.0800
      7 N7        -12.3836   -3.6406   56.9746 N.am    1  ZINC001345966764   -0.7000
      8 C8        -11.8177   -2.5133   57.4496 C.2     1  ZINC001345966764    0.5100
      9 O9        -12.0693   -1.4442   56.9337 O.2     1  ZINC001345966764   -0.5100
     10 C10       -10.8802   -2.5801   58.6117 C.2     1  ZINC001345966764    0.5100
     11 O11       -10.6096   -3.6520   59.1120 O.2     1  ZINC001345966764   -0.5100
     12 N12       -10.3355   -1.4499   59.1037 N.am    1  ZINC001345966764   -0.7000
     13 C13        -9.4151   -1.5155   60.2417 C.3     1  ZINC001345966764    0.1200
     14 C14        -9.4620   -0.1947   61.0125 C.3     1  ZINC001345966764    0.0600
     15 H15        -9.2017    0.6361   60.3566 H       1  ZINC001345966764    0.0900
     16 C16       -10.8640    0.0217   61.6239 C.3     1  ZINC001345966764   -0.1400
     17 C17       -10.5793    0.6815   62.9917 C.3     1  ZINC001345966764   -0.1500
     18 C18        -9.0390    0.7857   63.0448 C.3     1  ZINC001345966764    0.0300
     19 H19        -8.7131    1.7678   62.7022 H       1  ZINC001345966764    0.1200
     20 C20        -8.5362    0.5248   64.4661 C.3     1  ZINC001345966764    0.4600
     21 F21        -9.3589    1.1903   65.3813 F       1  ZINC001345966764   -0.1700
     22 F22        -8.5655   -0.8494   64.7262 F       1  ZINC001345966764   -0.1700
     23 F23        -7.2245    0.9951   64.5905 F       1  ZINC001345966764   -0.1700
     24 O24        -8.5663   -0.2411   62.1445 O.3     1  ZINC001345966764   -0.3500
     25 H25       -14.5624   -6.9967   56.7217 H       1  ZINC001345966764    0.3500
     26 H26       -14.9280   -6.1182   55.3577 H       1  ZINC001345966764    0.3600
     27 H27       -15.9816   -5.1481   57.3209 H       1  ZINC001345966764    0.1100
     28 H28       -14.3510   -4.9787   58.0142 H       1  ZINC001345966764    0.0700
     29 H29       -13.0954   -4.3975   55.1528 H       1  ZINC001345966764    0.1100
     30 H30       -13.1707   -2.6267   55.3159 H       1  ZINC001345966764    0.1100
     31 H31       -12.1815   -4.4953   57.3863 H       1  ZINC001345966764    0.4200
     32 H32       -10.5527   -0.5930   58.7045 H       1  ZINC001345966764    0.4200
     33 H33        -9.7104   -2.3317   60.9011 H       1  ZINC001345966764    0.1000
     34 H34        -8.4017   -1.6892   59.8798 H       1  ZINC001345966764    0.0900
     35 H35       -11.4565    0.6863   60.9952 H       1  ZINC001345966764    0.0900
     36 H36       -11.3733   -0.9326   61.7588 H       1  ZINC001345966764    0.0900
     37 H37       -11.0311    1.6724   63.0392 H       1  ZINC001345966764    0.1000
     38 H38       -10.9479    0.0535   63.8028 H       1  ZINC001345966764    0.0900
@<TRIPOS>BOND
     1     1     2    1
     2     1    25    1
     3     1    26    1
     4     2     3    1
     5     2    27    1
     6     2    28    1
     7     3     4    1
     8     3     5    1
     9     3     6    1
    10     6     7    1
    11     6    29    1
    12     6    30    1
    13     7     8   am
    14     7    31    1
    15     8     9    2
    16     8    10    1
    17    10    11    2
    18    10    12   am
    19    12    13    1
    20    12    32    1
    21    13    14    1
    22    13    33    1
    23    13    34    1
    24    14    15    1
    25    14    24    1
    26    14    16    1
    27    16    17    1
    28    16    35    1
    29    16    36    1
    30    17    18    1
    31    17    37    1
    32    17    38    1
    33    18    19    1
    34    18    20    1
    35    18    24    1
    36    20    21    1
    37    20    22    1
    38    20    23    1
@<TRIPOS>SUBSTRUCTURE
     1 ZINC001345966764        1 TEMP              0 ****  ****    0 ROOT


##########                                Name:    ZINC001199210165
##########                DOCK_Rotatable_Bonds:                   5
##########                         Heavy_Atoms:                  23
##########                    Molecular_Weight:             375.225
##########                DOCK_Rotatable_Bonds:                   5
##########                       Formal_Charge:         -0.00999999
##########                     HBond_Acceptors:                   6
##########                        HBond_Donors:                   2
##########                         Heavy_Atoms:                  23
##########                          Grid_Score:          -28.131960
##########                     Grid_vdw_energy:          -27.221153
##########                      Grid_es_energy:           -0.910807
##########           Internal_energy_repulsive:           17.145313

@<TRIPOS>MOLECULE
ZINC001199210165
 38 40 1 0 0
SMALL
USER_CHARGES


@<TRIPOS>ATOM
      1 C1        -15.4102   -3.8580   57.3281 C.3     1  ZINC001199210165   -0.1700
      2 C2        -14.1980   -4.5853   56.7430 C.3     1  ZINC001199210165    0.0800
      3 C3        -14.6365   -5.9413   56.1865 C.3     1  ZINC001199210165   -0.1500
      4 O4        -13.6325   -3.7994   55.6919 O.3     1  ZINC001199210165   -0.3000
      5 C5        -12.8641   -2.7427   56.0579 C.ar    1  ZINC001199210165    0.3300
      6 C6        -12.5933   -2.5239   57.4019 C.ar    1  ZINC001199210165   -0.1300
      7 C7        -11.8010   -1.4323   57.7628 C.ar    1  ZINC001199210165   -0.0600
      8 C8        -11.4847   -1.1588   59.1838 C.2     1  ZINC001199210165    0.5700
      9 O9        -11.7419   -1.9880   60.0341 O.2     1  ZINC001199210165   -0.4900
     10 N10       -10.9118    0.0099   59.5338 N.am    1  ZINC001199210165   -0.6600
     11 C11       -10.6132    0.2681   60.8750 C.ar    1  ZINC001199210165    0.2000
     12 C12       -11.4554    1.0892   61.6263 C.ar    1  ZINC001199210165   -0.1500
     13 C13       -11.1804    1.3518   62.9355 C.ar    1  ZINC001199210165   -0.0200
     14 C14       -10.0449    0.7949   63.5347 C.ar    1  ZINC001199210165   -0.1700
     15 C15        -9.4697    0.8672   64.8748 C.2     1  ZINC001199210165    0.0900
     16 Br16      -10.1722    1.8373   66.3381 Br      1  ZINC001199210165    0.0600
     17 N17        -8.3863    0.1437   64.8825 N.2     1  ZINC001199210165   -0.2100
     18 N18        -8.1796   -0.4256   63.6218 N.pl3   1  ZINC001199210165   -0.4900
     19 C19        -9.1905   -0.0349   62.7823 C.ar    1  ZINC001199210165    0.1500
     20 C20        -9.4888   -0.2967   61.4487 C.ar    1  ZINC001199210165   -0.1700
     21 C21       -11.3134   -0.6038   56.7458 C.ar    1  ZINC001199210165   -0.1900
     22 C22       -11.6302   -0.8927   55.4340 C.ar    1  ZINC001199210165    0.1400
     23 N23       -12.3774   -1.9362   55.1302 N.ar    1  ZINC001199210165   -0.5200
     24 H24       -16.1549   -3.7063   56.5468 H       1  ZINC001199210165    0.0600
     25 H25       -15.8415   -4.4573   58.1298 H       1  ZINC001199210165    0.0700
     26 H26       -15.0978   -2.8919   57.7245 H       1  ZINC001199210165    0.0600
     27 H27       -13.4532   -4.7368   57.5243 H       1  ZINC001199210165    0.0900
     28 H28       -15.3813   -5.7898   55.4051 H       1  ZINC001199210165    0.0700
     29 H29       -13.7728   -6.4595   55.7696 H       1  ZINC001199210165    0.0600
     30 H30       -15.0678   -6.5408   56.9882 H       1  ZINC001199210165    0.0800
     31 H31       -12.9896   -3.1874   58.1564 H       1  ZINC001199210165    0.1600
     32 H32       -10.7064    0.6718   58.8551 H       1  ZINC001199210165    0.4100
     33 H33       -12.3323    1.5207   61.1665 H       1  ZINC001199210165    0.1500
     34 H34       -11.8375    1.9886   63.5092 H       1  ZINC001199210165    0.1400
     35 H35        -7.4396   -1.0044   63.3803 H       1  ZINC001199210165    0.4500
     36 H36        -8.8437   -0.9354   60.8637 H       1  ZINC001199210165    0.1400
     37 H37       -10.6975    0.2507   56.9844 H       1  ZINC001199210165    0.1400
     38 H38       -11.2575   -0.2573   54.6443 H       1  ZINC001199210165    0.1700
@<TRIPOS>BOND
     1     1     2    1
     2     1    24    1
     3     1    25    1
     4     1    26    1
     5     2     3    1
     6     2     4    1
     7     2    27    1
     8     3    28    1
     9     3    29    1
    10     3    30    1
    11     4     5    1
    12     5    23   ar
    13     5     6   ar
    14     6     7   ar
    15     6    31    1
    16     7     8    1
    17     7    21   ar
    18     8     9    2
    19     8    10   am
    20    10    11    1
    21    10    32    1
    22    11    20   ar
    23    11    12   ar
    24    12    13   ar
    25    12    33    1
    26    13    14   ar
    27    13    34    1
    28    14    19   ar
    29    14    15    1
    30    15    16    1
    31    15    17    2
    32    17    18    1
    33    18    19    1
    34    18    35    1
    35    19    20   ar
    36    20    36    1
    37    21    22   ar
    38    21    37    1
    39    22    23   ar
    40    22    38    1
@<TRIPOS>SUBSTRUCTURE
     1 ZINC001199210165        1 TEMP              0 ****  ****    0 ROOT


##########                                Name:    ZINC000883773972
##########                DOCK_Rotatable_Bonds:                   4
##########                         Heavy_Atoms:                  23
##########                    Molecular_Weight:             343.447
##########                DOCK_Rotatable_Bonds:                   4
##########                       Formal_Charge:                0.01
##########                     HBond_Acceptors:                   8
##########                        HBond_Donors:                   1
##########                         Heavy_Atoms:                  23
##########                          Grid_Score:          -28.124475
##########                     Grid_vdw_energy:          -26.379635
##########                      Grid_es_energy:           -1.744841
##########           Internal_energy_repulsive:            4.818553

@<TRIPOS>MOLECULE
ZINC000883773972
 48 50 1 0 0
SMALL
USER_CHARGES


@<TRIPOS>ATOM
      1 C1         -9.6921    2.3438   53.1494 C.3     1  ZINC000883773972   -0.1700
      2 C2         -9.1467    2.8122   51.8248 C.2     1  ZINC000883773972    0.5300
      3 O3         -9.9064    3.1352   50.9363 O.2     1  ZINC000883773972   -0.5400
      4 N4         -7.8148    2.8721   51.6277 N.am    1  ZINC000883773972   -0.6200
      5 C5         -6.7651    2.5134   52.5956 C.3     1  ZINC000883773972    0.1100
      6 C6         -5.5784    1.9855   51.7724 C.3     1  ZINC000883773972   -0.1100
      7 H7         -5.5127    0.8981   51.8063 H       1  ZINC000883773972    0.1000
      8 C8         -4.2820    2.6529   52.2614 C.3     1  ZINC000883773972    0.1300
      9 N9         -3.5820    3.1313   51.0581 N.am    1  ZINC000883773972   -0.6400
     10 C10        -2.2487    3.2314   50.8881 C.2     1  ZINC000883773972    0.7300
     11 O11        -1.7992    3.6436   49.8363 O.2     1  ZINC000883773972   -0.5800
     12 N12        -1.4137    2.8744   51.8841 N.am    1  ZINC000883773972   -0.7400
     13 C13         0.0355    2.9815   51.6987 C.3     1  ZINC000883773972    0.1800
     14 H14         0.2522    3.7911   51.0016 H       1  ZINC000883773972    0.1100
     15 C15         0.6973    3.2784   53.0411 C.3     1  ZINC000883773972   -0.1500
     16 C16         2.1665    3.6426   52.8478 C.3     1  ZINC000883773972   -0.1000
     17 C17         2.9593    2.4066   52.4164 C.3     1  ZINC000883773972   -0.5600
     18 H18         2.8245    1.6123   53.1505 H       1  ZINC000883773972    0.1400
     19 C19         4.4440    2.7613   52.3124 C.3     1  ZINC000883773972   -0.1400
     20 S20         2.3504    1.8485   50.7983 S.o2    1  ZINC000883773972    2.4200
     21 O21         2.5323    2.8978   49.8574 O.2     1  ZINC000883773972   -0.9200
     22 O22         2.8975    0.5661   50.5242 O.2     1  ZINC000883773972   -0.9300
     23 C23         0.5738    1.6658   51.1322 C.3     1  ZINC000883773972   -0.6300
     24 C24        -4.6226    3.4792   50.0765 C.3     1  ZINC000883773972    0.1100
     25 C25        -5.8148    2.5069   50.3336 C.3     1  ZINC000883773972   -0.1100
     26 H26        -5.8549    1.7092   49.5918 H       1  ZINC000883773972    0.1000
     27 C27        -7.1255    3.3029   50.4004 C.3     1  ZINC000883773972    0.1100
     28 H28       -10.7815    2.3626   53.1208 H       1  ZINC000883773972    0.0900
     29 H29        -9.3512    1.3268   53.3435 H       1  ZINC000883773972    0.0900
     30 H30        -9.3380    3.0032   53.9417 H       1  ZINC000883773972    0.0900
     31 H31        -6.4641    3.3932   53.1643 H       1  ZINC000883773972    0.0800
     32 H32        -7.1274    1.7373   53.2699 H       1  ZINC000883773972    0.0900
     33 H33        -4.5173    3.4922   52.9160 H       1  ZINC000883773972    0.0700
     34 H34        -3.6641    1.9273   52.7902 H       1  ZINC000883773972    0.0900
     35 H35        -1.7724    2.5467   52.7236 H       1  ZINC000883773972    0.4000
     36 H36         0.1811    4.1105   53.5199 H       1  ZINC000883773972    0.0900
     37 H37         0.6265    2.3976   53.6792 H       1  ZINC000883773972    0.0800
     38 H38         2.2505    4.4122   52.0806 H       1  ZINC000883773972    0.0900
     39 H39         2.5714    4.0229   53.7856 H       1  ZINC000883773972    0.0900
     40 H40         4.8046    3.1030   53.2826 H       1  ZINC000883773972    0.0800
     41 H41         5.0073    1.8802   52.0050 H       1  ZINC000883773972    0.0700
     42 H42         4.5775    3.5532   51.5755 H       1  ZINC000883773972    0.0800
     43 H43         0.4190    0.8646   51.8550 H       1  ZINC000883773972    0.1400
     44 H44         0.0510    1.4288   50.2056 H       1  ZINC000883773972    0.1400
     45 H45        -4.9380    4.5131   50.2161 H       1  ZINC000883773972    0.0800
     46 H46        -4.2447    3.3363   49.0641 H       1  ZINC000883773972    0.0800
     47 H47        -7.7318    3.1001   49.5175 H       1  ZINC000883773972    0.0900
     48 H48        -6.9123    4.3695   50.4715 H       1  ZINC000883773972    0.0700
@<TRIPOS>BOND
     1     1     2    1
     2     1    28    1
     3     1    29    1
     4     1    30    1
     5     2     3    2
     6     2     4   am
     7     4    27    1
     8     4     5    1
     9     5     6    1
    10     5    31    1
    11     5    32    1
    12     6     7    1
    13     6    25    1
    14     6     8    1
    15     8     9    1
    16     8    33    1
    17     8    34    1
    18     9    10   am
    19     9    24    1
    20    10    11    2
    21    10    12   am
    22    12    13    1
    23    12    35    1
    24    13    14    1
    25    13    23    1
    26    13    15    1
    27    15    16    1
    28    15    36    1
    29    15    37    1
    30    16    17    1
    31    16    38    1
    32    16    39    1
    33    17    18    1
    34    17    19    1
    35    17    20    1
    36    19    40    1
    37    19    41    1
    38    19    42    1
    39    20    21    2
    40    20    22    2
    41    20    23    1
    42    23    43    1
    43    23    44    1
    44    24    25    1
    45    24    45    1
    46    24    46    1
    47    25    26    1
    48    25    27    1
    49    27    47    1
    50    27    48    1
@<TRIPOS>SUBSTRUCTURE
     1 ZINC000883773972        1 TEMP              0 ****  ****    0 ROOT


##########                                Name:    ZINC000420486261
##########                DOCK_Rotatable_Bonds:                   7
##########                         Heavy_Atoms:                  26
##########                    Molecular_Weight:             353.378
##########                DOCK_Rotatable_Bonds:                   7
##########                       Formal_Charge:        -2.98023e-08
##########                     HBond_Acceptors:                   7
##########                        HBond_Donors:                   0
##########                         Heavy_Atoms:                  26
##########                          Grid_Score:          -28.107756
##########                     Grid_vdw_energy:          -28.140940
##########                      Grid_es_energy:            0.033185
##########           Internal_energy_repulsive:            9.416134

@<TRIPOS>MOLECULE
ZINC000420486261
 45 47 1 0 0
SMALL
USER_CHARGES


@<TRIPOS>ATOM
      1 C1        -16.9672   -3.1935   59.8139 C.3     1  ZINC000420486261    0.0400
      2 O2        -15.5634   -2.9307   59.5518 O.3     1  ZINC000420486261   -0.3500
      3 C3        -15.0385   -3.4703   58.4352 C.2     1  ZINC000420486261    0.5100
      4 O4        -15.7337   -4.1426   57.7010 O.2     1  ZINC000420486261   -0.4900
      5 C5        -13.6136   -3.2439   58.1029 C.ar    1  ZINC000420486261   -0.0700
      6 C6        -13.0932   -3.6389   56.8660 C.ar    1  ZINC000420486261   -0.0900
      7 C7        -11.7562   -3.4098   56.5916 C.ar    1  ZINC000420486261    0.1100
      8 N8        -10.9722   -2.8292   57.4740 N.ar    1  ZINC000420486261   -0.4200
      9 C9        -11.4198   -2.4368   58.6604 C.ar    1  ZINC000420486261    0.1900
     10 C10       -10.4932   -1.7879   59.6147 C.2     1  ZINC000420486261    0.2200
     11 N11       -10.8066   -1.2767   60.7892 N.2     1  ZINC000420486261   -0.4300
     12 C12        -9.6496   -0.8013   61.2964 C.2     1  ZINC000420486261    0.2200
     13 C13        -9.4756   -0.1283   62.6067 C.ar    1  ZINC000420486261   -0.0600
     14 C14        -8.2272   -0.1108   63.2239 C.ar    1  ZINC000420486261   -0.0300
     15 C15        -8.0703    0.5167   64.4431 C.ar    1  ZINC000420486261   -0.1600
     16 C16        -9.1494    1.1293   65.0556 C.ar    1  ZINC000420486261   -0.0600
     17 C17       -10.3924    1.1181   64.4523 C.ar    1  ZINC000420486261   -0.2200
     18 C18       -10.5631    0.4966   63.2253 C.ar    1  ZINC000420486261    0.1700
     19 O19       -11.7842    0.4850   62.6312 O.3     1  ZINC000420486261   -0.2900
     20 C20       -12.1720    1.6636   61.9225 C.3     1  ZINC000420486261    0.0600
     21 C21       -13.5462    1.4467   61.2855 C.3     1  ZINC000420486261   -0.0900
     22 C22       -14.5757    1.1579   62.3797 C.3     1  ZINC000420486261   -0.1500
     23 C23       -13.9569    2.7050   60.5180 C.3     1  ZINC000420486261   -0.1500
     24 N24        -8.7096   -1.0442   60.4185 N.2     1  ZINC000420486261   -0.3400
     25 O25        -9.1728   -1.6125   59.4525 O.3     1  ZINC000420486261    0.1000
     26 C26       -12.7543   -2.6247   59.0143 C.ar    1  ZINC000420486261   -0.0700
     27 H27       -17.2619   -2.7023   60.7413 H       1  ZINC000420486261    0.1100
     28 H28       -17.5690   -2.8073   58.9911 H       1  ZINC000420486261    0.0700
     29 H29       -17.1246   -4.2681   59.9060 H       1  ZINC000420486261    0.0700
     30 H30       -13.7271   -4.1172   56.1340 H       1  ZINC000420486261    0.1600
     31 H31       -11.3498   -3.7131   55.6380 H       1  ZINC000420486261    0.1800
     32 H32        -7.3827   -0.5882   62.7491 H       1  ZINC000420486261    0.1400
     33 H33        -7.1019    0.5293   64.9211 H       1  ZINC000420486261    0.1300
     34 H34        -9.0195    1.6181   66.0098 H       1  ZINC000420486261    0.1300
     35 H35       -11.2309    1.5979   64.9351 H       1  ZINC000420486261    0.1400
     36 H36       -12.2211    2.5041   62.6146 H       1  ZINC000420486261    0.0600
     37 H37       -11.4400    1.8766   61.1435 H       1  ZINC000420486261    0.0600
     38 H38       -13.4989    0.6015   60.5988 H       1  ZINC000420486261    0.0800
     39 H39       -14.6229    2.0031   63.0664 H       1  ZINC000420486261    0.0600
     40 H40       -15.5546    1.0033   61.9259 H       1  ZINC000420486261    0.0700
     41 H41       -14.2831    0.2615   62.9265 H       1  ZINC000420486261    0.0600
     42 H42       -14.0041    3.5502   61.2047 H       1  ZINC000420486261    0.0500
     43 H43       -13.2234    2.9107   59.7385 H       1  ZINC000420486261    0.0600
     44 H44       -14.9358    2.5505   60.0642 H       1  ZINC000420486261    0.0600
     45 H45       -13.1164   -2.3044   59.9800 H       1  ZINC000420486261    0.1600
@<TRIPOS>BOND
     1     1     2    1
     2     1    27    1
     3     1    28    1
     4     1    29    1
     5     2     3    1
     6     3     4    2
     7     3     5    1
     8     5    26   ar
     9     5     6   ar
    10     6     7   ar
    11     6    30    1
    12     7     8   ar
    13     7    31    1
    14     8     9   ar
    15     9    10    1
    16     9    26   ar
    17    10    25    1
    18    10    11    2
    19    11    12    1
    20    12    13    1
    21    12    24    2
    22    13    18   ar
    23    13    14   ar
    24    14    15   ar
    25    14    32    1
    26    15    16   ar
    27    15    33    1
    28    16    17   ar
    29    16    34    1
    30    17    18   ar
    31    17    35    1
    32    18    19    1
    33    19    20    1
    34    20    21    1
    35    20    36    1
    36    20    37    1
    37    21    22    1
    38    21    23    1
    39    21    38    1
    40    22    39    1
    41    22    40    1
    42    22    41    1
    43    23    42    1
    44    23    43    1
    45    23    44    1
    46    24    25    1
    47    26    45    1
@<TRIPOS>SUBSTRUCTURE
     1 ZINC000420486261        1 TEMP              0 ****  ****    0 ROOT


##########                                Name:    ZINC001139743874
##########                DOCK_Rotatable_Bonds:                   5
##########                         Heavy_Atoms:                  28
##########                    Molecular_Weight:             382.506
##########                DOCK_Rotatable_Bonds:                   5
##########                       Formal_Charge:           0.0199992
##########                     HBond_Acceptors:                   6
##########                        HBond_Donors:                   0
##########                         Heavy_Atoms:                  28
##########                          Grid_Score:          -28.101526
##########                     Grid_vdw_energy:          -28.497284
##########                      Grid_es_energy:            0.395757
##########           Internal_energy_repulsive:           16.018248

@<TRIPOS>MOLECULE
ZINC001139743874
 58 61 1 0 0
SMALL
USER_CHARGES


@<TRIPOS>ATOM
      1 C1        -13.9038   -1.8314   59.6976 C.3     1  ZINC001139743874   -0.1800
      2 C2        -15.3916   -1.4745   59.6841 C.3     1  ZINC001139743874    0.1400
      3 C3        -16.1821   -2.5555   60.4240 C.3     1  ZINC001139743874   -0.1800
      4 C4        -15.5989   -0.1265   60.3775 C.3     1  ZINC001139743874   -0.1400
      5 O5        -15.8564   -1.3891   58.3112 O.3     1  ZINC001139743874   -0.3600
      6 C6        -15.3800   -2.3046   57.4466 C.2     1  ZINC001139743874    0.6500
      7 O7        -15.4877   -3.4891   57.6954 O.2     1  ZINC001139743874   -0.5700
      8 N8        -14.7836   -1.9073   56.3052 N.am    1  ZINC001139743874   -0.5900
      9 C9        -14.2725   -2.8651   55.3766 C.3     1  ZINC001139743874    0.1000
     10 C10       -12.8256   -3.3654   55.6500 C.3     1  ZINC001139743874   -0.1300
     11 C11       -11.9461   -2.1675   56.1116 C.3     1  ZINC001139743874   -0.0900
     12 C12       -12.2769   -0.9161   55.3667 C.3     1  ZINC001139743874   -0.0800
     13 C13       -11.0805   -0.1249   54.8249 C.3     1  ZINC001139743874    0.0100
     14 N14       -11.2854   -0.8798   53.5674 N.3     1  ZINC001139743874   -0.4700
     15 C15       -11.1545   -0.0003   52.3982 C.3     1  ZINC001139743874    0.0600
     16 C16        -9.7051    0.3634   52.2029 C.ar    1  ZINC001139743874   -0.1200
     17 C17        -8.7442   -0.6396   52.0902 C.ar    1  ZINC001139743874    0.1500
     18 N18        -7.4748   -0.3594   51.9196 N.ar    1  ZINC001139743874   -0.4600
     19 C19        -7.0471    0.9031   51.8458 C.ar    1  ZINC001139743874    0.0800
     20 C20        -5.6819    1.2009   51.6619 C.ar    1  ZINC001139743874   -0.0400
     21 C21        -5.3106    2.5127   51.5946 C.ar    1  ZINC001139743874   -0.1600
     22 C22        -6.2717    3.5159   51.7075 C.ar    1  ZINC001139743874    0.1300
     23 N23        -7.5409    3.2359   51.8786 N.ar    1  ZINC001139743874   -0.4700
     24 C24        -7.9687    1.9731   51.9521 C.ar    1  ZINC001139743874    0.0800
     25 C25        -9.3342    1.6753   52.1308 C.ar    1  ZINC001139743874   -0.0400
     26 C26       -12.7095   -1.1020   53.9076 C.3     1  ZINC001139743874    0.0000
     27 C27       -13.2493   -0.0682   56.1926 C.3     1  ZINC001139743874   -0.1300
     28 C28       -14.6475   -0.4525   55.9790 C.3     1  ZINC001139743874    0.1400
     29 H29       -13.7561   -2.7917   59.2037 H       1  ZINC001139743874    0.0900
     30 H30       -13.3407   -1.0612   59.1706 H       1  ZINC001139743874    0.0600
     31 H31       -13.5549   -1.8954   60.7283 H       1  ZINC001139743874    0.0700
     32 H32       -15.8332   -2.6195   61.4546 H       1  ZINC001139743874    0.0700
     33 H33       -17.2420   -2.3012   60.4145 H       1  ZINC001139743874    0.0600
     34 H34       -16.0344   -3.5159   59.9300 H       1  ZINC001139743874    0.0900
     35 H35       -15.0358    0.6437   59.8504 H       1  ZINC001139743874    0.0700
     36 H36       -16.6588    0.1278   60.3679 H       1  ZINC001139743874    0.0700
     37 H37       -15.2500   -0.1905   61.4082 H       1  ZINC001139743874    0.0800
     38 H38       -14.9377   -3.7287   55.3768 H       1  ZINC001139743874    0.0700
     39 H39       -14.2977   -2.4219   54.3811 H       1  ZINC001139743874    0.0900
     40 H40       -12.8448   -4.1251   56.4315 H       1  ZINC001139743874    0.0700
     41 H41       -12.4095   -3.7920   54.7373 H       1  ZINC001139743874    0.0800
     42 H42       -12.1058   -1.9995   57.1766 H       1  ZINC001139743874    0.0600
     43 H43       -10.8970   -2.4126   55.9457 H       1  ZINC001139743874    0.0700
     44 H44       -11.2668    0.9449   54.7310 H       1  ZINC001139743874    0.0700
     45 H45       -10.1396   -0.3522   55.3261 H       1  ZINC001139743874    0.0900
     46 H46       -11.5219   -0.5173   51.5117 H       1  ZINC001139743874    0.0600
     47 H47       -11.7381    0.9062   52.5582 H       1  ZINC001139743874    0.0900
     48 H48        -9.0528   -1.6731   52.1450 H       1  ZINC001139743874    0.1700
     49 H49        -4.9490    0.4123   51.5768 H       1  ZINC001139743874    0.1500
     50 H50        -4.2720    2.7734   51.4542 H       1  ZINC001139743874    0.1500
     51 H51        -5.9632    4.5496   51.6531 H       1  ZINC001139743874    0.1700
     52 H52       -10.0675    2.4640   52.2123 H       1  ZINC001139743874    0.1400
     53 H53       -13.0647   -2.1068   53.6789 H       1  ZINC001139743874    0.1000
     54 H54       -13.3758   -0.3202   53.5434 H       1  ZINC001139743874    0.0700
     55 H55       -13.0076   -0.1830   57.2492 H       1  ZINC001139743874    0.0700
     56 H56       -13.1265    0.9790   55.9163 H       1  ZINC001139743874    0.0800
     57 H57       -14.9218   -0.2774   54.9387 H       1  ZINC001139743874    0.0800
     58 H58       -15.2934    0.1332   56.6331 H       1  ZINC001139743874    0.1000
@<TRIPOS>BOND
     1     1     2    1
     2     1    29    1
     3     1    30    1
     4     1    31    1
     5     2     3    1
     6     2     4    1
     7     2     5    1
     8     3    32    1
     9     3    33    1
    10     3    34    1
    11     4    35    1
    12     4    36    1
    13     4    37    1
    14     5     6    1
    15     6     7    2
    16     6     8   am
    17     8    28    1
    18     8     9    1
    19     9    10    1
    20     9    38    1
    21     9    39    1
    22    10    11    1
    23    10    40    1
    24    10    41    1
    25    11    12    1
    26    11    42    1
    27    11    43    1
    28    12    26    1
    29    12    13    1
    30    12    27    1
    31    13    14    1
    32    13    44    1
    33    13    45    1
    34    14    15    1
    35    14    26    1
    36    15    16    1
    37    15    46    1
    38    15    47    1
    39    16    25   ar
    40    16    17   ar
    41    17    18   ar
    42    17    48    1
    43    18    19   ar
    44    19    24   ar
    45    19    20   ar
    46    20    21   ar
    47    20    49    1
    48    21    22   ar
    49    21    50    1
    50    22    23   ar
    51    22    51    1
    52    23    24   ar
    53    24    25   ar
    54    25    52    1
    55    26    53    1
    56    26    54    1
    57    27    28    1
    58    27    55    1
    59    27    56    1
    60    28    57    1
    61    28    58    1
@<TRIPOS>SUBSTRUCTURE
     1 ZINC001139743874        1 TEMP              0 ****  ****    0 ROOT


##########                                Name:    ZINC001018118384
##########                DOCK_Rotatable_Bonds:                   5
##########                         Heavy_Atoms:                  25
##########                    Molecular_Weight:             347.374
##########                DOCK_Rotatable_Bonds:                   5
##########                       Formal_Charge:           0.0299997
##########                     HBond_Acceptors:                   9
##########                        HBond_Donors:                   2
##########                         Heavy_Atoms:                  25
##########                          Grid_Score:          -28.100670
##########                     Grid_vdw_energy:          -27.760378
##########                      Grid_es_energy:           -0.340293
##########           Internal_energy_repulsive:           97.521210

@<TRIPOS>MOLECULE
ZINC001018118384
 46 48 1 0 0
SMALL
USER_CHARGES


@<TRIPOS>ATOM
      1 C1        -15.6586   -3.6528   58.2950 C.3     1  ZINC001018118384   -0.0700
      2 C2        -14.9937   -3.0788   59.5196 C.2     1  ZINC001018118384    0.2200
      3 N3        -14.0987   -2.1337   59.5207 N.2     1  ZINC001018118384   -0.4600
      4 C4        -13.7307   -1.8792   60.8025 C.2     1  ZINC001018118384   -0.0700
      5 C5        -12.7415   -0.8800   61.2425 C.2     1  ZINC001018118384    0.6100
      6 O6        -13.1137    0.1827   61.7023 O.2     1  ZINC001018118384   -0.5400
      7 N7        -11.4241   -1.1436   61.1355 N.am    1  ZINC001018118384   -0.5900
      8 C8        -10.9590   -2.4203   60.5765 C.3     1  ZINC001018118384    0.0700
      9 C9         -9.9793   -2.1310   59.4349 C.3     1  ZINC001018118384    0.1300
     10 H10        -9.5535   -3.0676   59.0750 H       1  ZINC001018118384    0.1100
     11 N11       -10.6876   -1.4632   58.3402 N.am    1  ZINC001018118384   -0.7000
     12 C12       -11.2134   -2.1907   57.3348 C.2     1  ZINC001018118384    0.6000
     13 O13       -11.0986   -3.4002   57.3355 O.2     1  ZINC001018118384   -0.4900
     14 C14       -11.9315   -1.5153   56.2281 C.2     1  ZINC001018118384    0.0300
     15 C15       -12.5147   -2.1198   55.1545 C.2     1  ZINC001018118384   -0.2300
     16 C16       -13.0587   -1.0395   54.4042 C.2     1  ZINC001018118384    0.4800
     17 O17       -13.6768   -1.1091   53.3549 O.2     1  ZINC001018118384   -0.5200
     18 N18       -12.7497    0.0765   55.0947 N.am    1  ZINC001018118384   -0.4500
     19 C19       -13.1165    1.4348   54.6865 C.3     1  ZINC001018118384    0.1100
     20 O20       -12.1339   -0.1952   56.0993 O.3     1  ZINC001018118384    0.0000
     21 C21        -8.8584   -1.2238   59.9475 C.3     1  ZINC001018118384   -0.1300
     22 C22        -9.4520    0.1042   60.4229 C.3     1  ZINC001018118384   -0.1300
     23 C23       -10.4257   -0.1572   61.5700 C.3     1  ZINC001018118384    0.1400
     24 H24        -9.8815   -0.5506   62.4287 H       1  ZINC001018118384    0.0700
     25 C25       -11.1226    1.1482   61.9588 C.3     1  ZINC001018118384   -0.1400
     26 C26       -14.4441   -2.7170   61.6090 C.2     1  ZINC001018118384    0.0400
     27 N27       -15.2361   -3.4602   60.8007 N.pl3   1  ZINC001018118384   -0.5600
     28 H28       -16.5603   -3.0830   58.0703 H       1  ZINC001018118384    0.0900
     29 H29       -14.9732   -3.5966   57.4493 H       1  ZINC001018118384    0.1000
     30 H30       -15.9233   -4.6939   58.4797 H       1  ZINC001018118384    0.0800
     31 H31       -10.4559   -2.9973   61.3524 H       1  ZINC001018118384    0.0800
     32 H32       -11.8103   -2.9832   60.1937 H       1  ZINC001018118384    0.1500
     33 H33       -10.7783   -0.4975   58.3389 H       1  ZINC001018118384    0.4100
     34 H34       -12.5544   -3.1746   54.9260 H       1  ZINC001018118384    0.1900
     35 H35       -14.0880    1.6913   55.1092 H       1  ZINC001018118384    0.0800
     36 H36       -12.3660    2.1380   55.0477 H       1  ZINC001018118384    0.0900
     37 H37       -13.1685    1.4858   53.5990 H       1  ZINC001018118384    0.1100
     38 H38        -8.3479   -1.7114   60.7780 H       1  ZINC001018118384    0.0900
     39 H39        -8.1467   -1.0365   59.1436 H       1  ZINC001018118384    0.0800
     40 H40        -8.6507    0.7588   60.7660 H       1  ZINC001018118384    0.0800
     41 H41        -9.9837    0.5806   59.5993 H       1  ZINC001018118384    0.0600
     42 H42       -11.6538    1.5476   61.0949 H       1  ZINC001018118384    0.0700
     43 H43       -11.8315    0.9557   62.7641 H       1  ZINC001018118384    0.0800
     44 H44       -10.3791    1.8712   62.2944 H       1  ZINC001018118384    0.0400
     45 H45       -14.3907   -2.7734   62.6861 H       1  ZINC001018118384    0.1900
     46 H46       -15.8598   -4.1465   61.0850 H       1  ZINC001018118384    0.4300
@<TRIPOS>BOND
     1     1     2    1
     2     1    28    1
     3     1    29    1
     4     1    30    1
     5     2    27    1
     6     2     3    2
     7     3     4    1
     8     4     5    1
     9     4    26    2
    10     5     6    2
    11     5     7   am
    12     7    23    1
    13     7     8    1
    14     8     9    1
    15     8    31    1
    16     8    32    1
    17     9    10    1
    18     9    11    1
    19     9    21    1
    20    11    12   am
    21    11    33    1
    22    12    13    2
    23    12    14    1
    24    14    20    1
    25    14    15    2
    26    15    16    1
    27    15    34    1
    28    16    17    2
    29    16    18   am
    30    18    19    1
    31    18    20    1
    32    19    35    1
    33    19    36    1
    34    19    37    1
    35    21    22    1
    36    21    38    1
    37    21    39    1
    38    22    23    1
    39    22    40    1
    40    22    41    1
    41    23    24    1
    42    23    25    1
    43    25    42    1
    44    25    43    1
    45    25    44    1
    46    26    27    1
    47    26    45    1
    48    27    46    1
@<TRIPOS>SUBSTRUCTURE
     1 ZINC001018118384        1 TEMP              0 ****  ****    0 ROOT


##########                                Name:    ZINC000187810810
##########                DOCK_Rotatable_Bonds:                   7
##########                         Heavy_Atoms:                  27
##########                    Molecular_Weight:             386.414
##########                DOCK_Rotatable_Bonds:                   7
##########                       Formal_Charge:           0.0599998
##########                     HBond_Acceptors:                   8
##########                        HBond_Donors:                   1
##########                         Heavy_Atoms:                  27
##########                          Grid_Score:          -28.092693
##########                     Grid_vdw_energy:          -27.376097
##########                      Grid_es_energy:           -0.716596
##########           Internal_energy_repulsive:           41.876034

@<TRIPOS>MOLECULE
ZINC000187810810
 52 53 1 0 0
SMALL
USER_CHARGES


@<TRIPOS>ATOM
      1 C1         -6.1311    2.7905   52.5490 C.3     1  ZINC000187810810   -0.1800
      2 C2         -6.3882    3.1825   51.0925 C.3     1  ZINC000187810810    0.1400
      3 C3         -6.4929    4.7051   50.9850 C.3     1  ZINC000187810810   -0.1800
      4 C4         -5.2330    2.6879   50.2198 C.3     1  ZINC000187810810   -0.1400
      5 O5         -7.6291    2.5789   50.6407 O.3     1  ZINC000187810810   -0.3600
      6 C6         -7.8065    1.2717   50.9098 C.2     1  ZINC000187810810    0.6500
      7 O7         -7.2480    0.4310   50.2332 O.2     1  ZINC000187810810   -0.5600
      8 N8         -8.6034    0.8957   51.9295 N.am    1  ZINC000187810810   -0.6000
      9 C9         -8.8005   -0.5268   52.2403 C.3     1  ZINC000187810810    0.1100
     10 C10       -10.3035   -0.8218   52.2680 C.3     1  ZINC000187810810   -0.1400
     11 C11       -10.9893    0.1359   53.2452 C.3     1  ZINC000187810810    0.1800
     12 C12       -12.4856   -0.1785   53.3015 C.3     1  ZINC000187810810   -0.1600
     13 N13       -10.4058   -0.0271   54.5789 N.am    1  ZINC000187810810   -0.7100
     14 C14       -10.8703    0.7038   55.6117 C.2     1  ZINC000187810810    0.5500
     15 O15       -11.7725    1.4992   55.4361 O.2     1  ZINC000187810810   -0.5100
     16 C16       -10.2826    0.5380   56.9582 C.ar    1  ZINC000187810810   -0.0900
     17 C17        -9.2402    1.3671   57.3748 C.ar    1  ZINC000187810810   -0.0900
     18 C18        -8.6964    1.2074   58.6328 C.ar    1  ZINC000187810810   -0.0900
     19 C19        -9.1821    0.2277   59.4803 C.ar    1  ZINC000187810810   -0.0900
     20 C20       -10.2152   -0.5981   59.0732 C.ar    1  ZINC000187810810   -0.0800
     21 C21       -10.7718   -0.4449   57.8204 C.ar    1  ZINC000187810810   -0.1300
     22 C22       -11.8971   -1.3447   57.3788 C.3     1  ZINC000187810810    0.5200
     23 F23       -13.0697   -0.5935   57.2449 F       1  ZINC000187810810   -0.1800
     24 F24       -11.5733   -1.9269   56.1486 F       1  ZINC000187810810   -0.1600
     25 F25       -12.0931   -2.3490   58.3328 F       1  ZINC000187810810   -0.1600
     26 C26       -10.7887    1.5782   52.7739 C.3     1  ZINC000187810810   -0.1500
     27 C27        -9.2868    1.9005   52.7555 C.3     1  ZINC000187810810    0.1300
     28 H28        -6.9540    3.1430   53.1708 H       1  ZINC000187810810    0.0900
     29 H29        -6.0564    1.7058   52.6255 H       1  ZINC000187810810    0.0600
     30 H30        -5.1995    3.2436   52.8881 H       1  ZINC000187810810    0.0700
     31 H31        -5.5614    5.1582   51.3242 H       1  ZINC000187810810    0.0700
     32 H32        -6.6760    4.9844   49.9474 H       1  ZINC000187810810    0.0600
     33 H33        -7.3159    5.0576   51.6068 H       1  ZINC000187810810    0.0900
     34 H34        -5.1584    1.6031   50.2963 H       1  ZINC000187810810    0.0700
     35 H35        -5.4162    2.9671   49.1822 H       1  ZINC000187810810    0.0700
     36 H36        -4.3015    3.1410   50.5589 H       1  ZINC000187810810    0.0800
     37 H37        -8.3223   -1.1377   51.4747 H       1  ZINC000187810810    0.1000
     38 H38        -8.3659   -0.7516   53.2144 H       1  ZINC000187810810    0.0700
     39 H39       -10.7199   -0.6834   51.2703 H       1  ZINC000187810810    0.0900
     40 H40       -10.4665   -1.8498   52.5915 H       1  ZINC000187810810    0.0900
     41 H41       -12.6286   -1.2053   53.6382 H       1  ZINC000187810810    0.0600
     42 H42       -12.9742    0.5035   53.9973 H       1  ZINC000187810810    0.0800
     43 H43       -12.9198   -0.0577   52.3090 H       1  ZINC000187810810    0.0700
     44 H44        -9.6850   -0.6611   54.7189 H       1  ZINC000187810810    0.4000
     45 H45        -8.8598    2.1318   56.7138 H       1  ZINC000187810810    0.1400
     46 H46        -7.8897    1.8483   58.9565 H       1  ZINC000187810810    0.1400
     47 H47        -8.7527    0.1066   60.4638 H       1  ZINC000187810810    0.1400
     48 H48       -10.5895   -1.3612   59.7394 H       1  ZINC000187810810    0.1500
     49 H49       -11.2006    1.6939   51.7714 H       1  ZINC000187810810    0.0800
     50 H50       -11.2971    2.2582   53.4574 H       1  ZINC000187810810    0.1000
     51 H51        -8.8947    1.8735   53.7722 H       1  ZINC000187810810    0.0700
     52 H52        -9.1309    2.8908   52.3275 H       1  ZINC000187810810    0.1000
@<TRIPOS>BOND
     1     1     2    1
     2     1    28    1
     3     1    29    1
     4     1    30    1
     5     2     3    1
     6     2     4    1
     7     2     5    1
     8     3    31    1
     9     3    32    1
    10     3    33    1
    11     4    34    1
    12     4    35    1
    13     4    36    1
    14     5     6    1
    15     6     7    2
    16     6     8   am
    17     8    27    1
    18     8     9    1
    19     9    10    1
    20     9    37    1
    21     9    38    1
    22    10    11    1
    23    10    39    1
    24    10    40    1
    25    11    12    1
    26    11    13    1
    27    11    26    1
    28    12    41    1
    29    12    42    1
    30    12    43    1
    31    13    14   am
    32    13    44    1
    33    14    15    2
    34    14    16    1
    35    16    21   ar
    36    16    17   ar
    37    17    18   ar
    38    17    45    1
    39    18    19   ar
    40    18    46    1
    41    19    20   ar
    42    19    47    1
    43    20    21   ar
    44    20    48    1
    45    21    22    1
    46    22    23    1
    47    22    24    1
    48    22    25    1
    49    26    27    1
    50    26    49    1
    51    26    50    1
    52    27    51    1
    53    27    52    1
@<TRIPOS>SUBSTRUCTURE
     1 ZINC000187810810        1 TEMP              0 ****  ****    0 ROOT


##########                                Name:    ZINC000291574087
##########                DOCK_Rotatable_Bonds:                   8
##########                         Heavy_Atoms:                  23
##########                    Molecular_Weight:             387.249
##########                DOCK_Rotatable_Bonds:                   8
##########                       Formal_Charge:          -0.0400007
##########                     HBond_Acceptors:                   6
##########                        HBond_Donors:                   2
##########                         Heavy_Atoms:                  23
##########                          Grid_Score:          -28.081966
##########                     Grid_vdw_energy:          -25.526377
##########                      Grid_es_energy:           -2.555590
##########           Internal_energy_repulsive:           23.286110

@<TRIPOS>MOLECULE
ZINC000291574087
 43 44 1 0 0
SMALL
USER_CHARGES


@<TRIPOS>ATOM
      1 C1         -3.0819    3.1566   54.7379 C.3     1  ZINC000291574087    0.0200
      2 O2         -3.7528    4.1008   53.9009 O.3     1  ZINC000291574087   -0.3700
      3 C3         -3.2706    4.1308   52.5560 C.3     1  ZINC000291574087    0.1400
      4 C4         -3.9498    5.2719   51.7961 C.3     1  ZINC000291574087   -0.1500
      5 C5         -3.5891    2.8007   51.8702 C.3     1  ZINC000291574087    0.0900
      6 N6         -4.9236    2.3505   52.2735 N.am    1  ZINC000291574087   -0.6900
      7 C7         -5.9410    2.3822   51.3901 C.2     1  ZINC000291574087    0.5100
      8 O8         -5.7520    2.7850   50.2611 O.2     1  ZINC000291574087   -0.5100
      9 C9         -7.3010    1.9216   51.8008 C.2     1  ZINC000291574087    0.5100
     10 O10        -8.2837    2.3420   51.2254 O.2     1  ZINC000291574087   -0.4900
     11 N11        -7.4372    1.0391   52.8102 N.am    1  ZINC000291574087   -0.6400
     12 C12        -8.7108    0.6077   53.1948 C.ar    1  ZINC000291574087    0.1300
     13 C13        -9.3666   -0.3689   52.4574 C.ar    1  ZINC000291574087   -0.1000
     14 C14       -10.6244   -0.7936   52.8398 C.ar    1  ZINC000291574087   -0.0400
     15 C15       -11.3361   -1.8535   52.0392 C.3     1  ZINC000291574087   -0.1300
     16 C16       -11.2315   -0.2477   53.9565 C.ar    1  ZINC000291574087   -0.0900
     17 Br17      -12.9528   -0.8338   54.4759 Br      1  ZINC000291574087   -0.0300
     18 C18       -10.5818    0.7260   54.6949 C.ar    1  ZINC000291574087   -0.1000
     19 C19        -9.3209    1.1521   54.3207 C.ar    1  ZINC000291574087    0.0700
     20 F20        -8.6865    2.1026   55.0412 F       1  ZINC000291574087   -0.1300
     21 C21        -1.7567    4.3520   52.5619 C.3     1  ZINC000291574087   -0.1900
     22 C22        -1.2041    5.4791   51.6874 C.3     1  ZINC000291574087   -0.1700
     23 C23        -1.2328    5.6355   53.2091 C.3     1  ZINC000291574087   -0.1600
     24 H24        -3.5057    3.1952   55.7415 H       1  ZINC000291574087    0.0900
     25 H25        -3.2079    2.1542   54.3286 H       1  ZINC000291574087    0.0400
     26 H26        -2.0204    3.4003   54.7823 H       1  ZINC000291574087    0.0500
     27 H27        -3.7230    6.2195   52.2847 H       1  ZINC000291574087    0.0700
     28 H28        -3.5820    5.2948   50.7703 H       1  ZINC000291574087    0.0800
     29 H29        -5.0284    5.1143   51.7919 H       1  ZINC000291574087    0.0700
     30 H30        -3.5620    2.9338   50.7887 H       1  ZINC000291574087    0.0900
     31 H31        -2.8502    2.0548   52.1632 H       1  ZINC000291574087    0.0800
     32 H32        -5.0749    2.0296   53.1763 H       1  ZINC000291574087    0.4200
     33 H33        -6.6520    0.7030   53.2699 H       1  ZINC000291574087    0.4300
     34 H34        -8.8940   -0.7959   51.5853 H       1  ZINC000291574087    0.1600
     35 H35       -11.0832   -2.8377   52.4336 H       1  ZINC000291574087    0.0800
     36 H36       -12.4130   -1.6999   52.1092 H       1  ZINC000291574087    0.0800
     37 H37       -11.0270   -1.7897   50.9960 H       1  ZINC000291574087    0.0800
     38 H38       -11.0585    1.1506   55.5661 H       1  ZINC000291574087    0.1500
     39 H39        -1.1505    3.4521   52.6661 H       1  ZINC000291574087    0.1100
     40 H40        -0.2341    5.3210   51.2158 H       1  ZINC000291574087    0.1000
     41 H41        -1.9190    6.0631   51.1077 H       1  ZINC000291574087    0.1000
     42 H42        -1.9666    6.3224   53.6306 H       1  ZINC000291574087    0.1000
     43 H43        -0.2818    5.5802   53.7387 H       1  ZINC000291574087    0.1000
@<TRIPOS>BOND
     1     1     2    1
     2     1    24    1
     3     1    25    1
     4     1    26    1
     5     2     3    1
     6     3     4    1
     7     3     5    1
     8     3    21    1
     9     4    27    1
    10     4    28    1
    11     4    29    1
    12     5     6    1
    13     5    30    1
    14     5    31    1
    15     6     7   am
    16     6    32    1
    17     7     8    2
    18     7     9    1
    19     9    10    2
    20     9    11   am
    21    11    12    1
    22    11    33    1
    23    12    19   ar
    24    12    13   ar
    25    13    14   ar
    26    13    34    1
    27    14    15    1
    28    14    16   ar
    29    15    35    1
    30    15    36    1
    31    15    37    1
    32    16    17    1
    33    16    18   ar
    34    18    19   ar
    35    18    38    1
    36    19    20    1
    37    21    23    1
    38    21    22    1
    39    21    39    1
    40    22    23    1
    41    22    40    1
    42    22    41    1
    43    23    42    1
    44    23    43    1
@<TRIPOS>SUBSTRUCTURE
     1 ZINC000291574087        1 TEMP              0 ****  ****    0 ROOT


##########                                Name:    ZINC000461678839
##########                DOCK_Rotatable_Bonds:                   6
##########                         Heavy_Atoms:                  28
##########                    Molecular_Weight:             404.939
##########                DOCK_Rotatable_Bonds:                   6
##########                       Formal_Charge:          -0.0200003
##########                     HBond_Acceptors:                   7
##########                        HBond_Donors:                   0
##########                         Heavy_Atoms:                  28
##########                          Grid_Score:          -28.057014
##########                     Grid_vdw_energy:          -27.921221
##########                      Grid_es_energy:           -0.135793
##########           Internal_energy_repulsive:           10.438247

@<TRIPOS>MOLECULE
ZINC000461678839
 57 60 1 0 0
SMALL
USER_CHARGES


@<TRIPOS>ATOM
      1 C1        -10.8933    2.8353   61.4192 C.3     1  ZINC000461678839   -0.1500
      2 C2        -10.7936    1.3176   61.2528 C.3     1  ZINC000461678839   -0.0900
      3 H3        -11.0194    0.8400   62.2062 H       1  ZINC000461678839    0.0700
      4 C4         -9.3523    0.9502   60.8339 C.3     1  ZINC000461678839   -0.1100
      5 C5         -9.1292   -0.5161   61.0921 C.3     1  ZINC000461678839   -0.1200
      6 C6         -9.4563   -1.3964   59.8726 C.3     1  ZINC000461678839    0.0600
      7 N7        -10.6956   -0.9917   59.1732 N.3     1  ZINC000461678839   -0.4600
      8 C8        -11.0922   -1.9603   58.2648 C.2     1  ZINC000461678839    0.3700
      9 N9        -10.8066   -3.2400   58.3148 N.2     1  ZINC000461678839   -0.3100
     10 N10       -11.3369   -3.8451   57.3125 N.2     1  ZINC000461678839   -0.2500
     11 C11       -11.9867   -2.9945   56.5698 C.2     1  ZINC000461678839    0.1700
     12 C12       -12.7450   -3.3091   55.3059 C.3     1  ZINC000461678839    0.1500
     13 O13       -13.7367   -4.3007   55.5798 O.3     1  ZINC000461678839   -0.3100
     14 C14       -14.8215   -3.9066   56.2977 C.ar    1  ZINC000461678839    0.1400
     15 C15       -15.7034   -2.9755   55.7690 C.ar    1  ZINC000461678839   -0.2000
     16 C16       -16.8053   -2.5762   56.5002 C.ar    1  ZINC000461678839   -0.0700
     17 C17       -17.0295   -3.1040   57.7594 C.ar    1  ZINC000461678839   -0.0700
     18 Cl18      -18.4146   -2.6002   58.6766 Cl      1  ZINC000461678839   -0.0700
     19 C19       -16.1512   -4.0332   58.2884 C.ar    1  ZINC000461678839   -0.0700
     20 C20       -15.0513   -4.4393   57.5579 C.ar    1  ZINC000461678839   -0.1400
     21 N21       -11.8583   -1.7643   57.1528 N.pl3   1  ZINC000461678839   -0.4600
     22 C22       -12.4194   -0.4973   56.6775 C.3     1  ZINC000461678839    0.1200
     23 C23       -11.3070    0.3548   56.0633 C.3     1  ZINC000461678839   -0.1400
     24 H24       -10.4044    0.2984   56.6719 H       1  ZINC000461678839    0.0900
     25 C25       -11.7694    1.8247   55.9150 C.3     1  ZINC000461678839   -0.1500
     26 C26       -11.1864    2.2105   54.5317 C.3     1  ZINC000461678839    0.0500
     27 O27       -11.3389    1.0040   53.7534 O.3     1  ZINC000461678839   -0.3700
     28 C28       -11.0138   -0.0996   54.6203 C.3     1  ZINC000461678839    0.0400
     29 C29       -11.7764   -0.6449   60.0644 C.3     1  ZINC000461678839    0.0700
     30 C30       -11.7692    0.8825   60.2596 C.3     1  ZINC000461678839   -0.1100
     31 H31       -11.9029    3.1008   61.7329 H       1  ZINC000461678839    0.0500
     32 H32       -10.1796    3.1658   62.1738 H       1  ZINC000461678839    0.0500
     33 H33       -10.6686    3.3204   60.4692 H       1  ZINC000461678839    0.0600
     34 H34        -9.2160    1.1590   59.7728 H       1  ZINC000461678839    0.0700
     35 H35        -8.6418    1.5358   61.4173 H       1  ZINC000461678839    0.0700
     36 H36        -8.0854   -0.6695   61.3661 H       1  ZINC000461678839    0.0800
     37 H37        -9.7581   -0.8251   61.9270 H       1  ZINC000461678839    0.0700
     38 H38        -8.6248   -1.3431   59.1698 H       1  ZINC000461678839    0.0700
     39 H39        -9.5639   -2.4287   60.2054 H       1  ZINC000461678839    0.0500
     40 H40       -13.2280   -2.4042   54.9373 H       1  ZINC000461678839    0.0800
     41 H41       -12.0537   -3.6850   54.5517 H       1  ZINC000461678839    0.1000
     42 H42       -15.5284   -2.5627   54.7865 H       1  ZINC000461678839    0.1400
     43 H43       -17.4921   -1.8512   56.0889 H       1  ZINC000461678839    0.1400
     44 H44       -16.3280   -4.4444   59.2712 H       1  ZINC000461678839    0.1400
     45 H45       -14.3660   -5.1647   57.9710 H       1  ZINC000461678839    0.1400
     46 H46       -13.1818   -0.6973   55.9244 H       1  ZINC000461678839    0.1100
     47 H47       -12.8674    0.0384   57.5144 H       1  ZINC000461678839    0.1000
     48 H48       -12.8574    1.8917   55.9109 H       1  ZINC000461678839    0.0800
     49 H49       -11.3457    2.4472   56.7029 H       1  ZINC000461678839    0.0900
     50 H50       -11.7565    3.0274   54.0891 H       1  ZINC000461678839    0.1000
     51 H51       -10.1338    2.4796   54.6203 H       1  ZINC000461678839    0.0600
     52 H52        -9.9593   -0.3547   54.5159 H       1  ZINC000461678839    0.0500
     53 H53       -11.6323   -0.9618   54.3706 H       1  ZINC000461678839    0.1100
     54 H54       -12.7259   -0.9555   59.6285 H       1  ZINC000461678839    0.0900
     55 H55       -11.6333   -1.1394   61.0251 H       1  ZINC000461678839    0.0600
     56 H56       -12.7613    1.2011   60.5796 H       1  ZINC000461678839    0.0700
     57 H57       -11.5394    1.3583   59.3062 H       1  ZINC000461678839    0.0700
@<TRIPOS>BOND
     1     1     2    1
     2     1    31    1
     3     1    32    1
     4     1    33    1
     5     2     3    1
     6     2    30    1
     7     2     4    1
     8     4     5    1
     9     4    34    1
    10     4    35    1
    11     5     6    1
    12     5    36    1
    13     5    37    1
    14     6     7    1
    15     6    38    1
    16     6    39    1
    17     7     8    1
    18     7    29    1
    19     8    21    1
    20     8     9    2
    21     9    10    1
    22    10    11    2
    23    11    12    1
    24    11    21    1
    25    12    13    1
    26    12    40    1
    27    12    41    1
    28    13    14    1
    29    14    20   ar
    30    14    15   ar
    31    15    16   ar
    32    15    42    1
    33    16    17   ar
    34    16    43    1
    35    17    18    1
    36    17    19   ar
    37    19    20   ar
    38    19    44    1
    39    20    45    1
    40    21    22    1
    41    22    23    1
    42    22    46    1
    43    22    47    1
    44    23    24    1
    45    23    28    1
    46    23    25    1
    47    25    26    1
    48    25    48    1
    49    25    49    1
    50    26    27    1
    51    26    50    1
    52    26    51    1
    53    27    28    1
    54    28    52    1
    55    28    53    1
    56    29    30    1
    57    29    54    1
    58    29    55    1
    59    30    56    1
    60    30    57    1
@<TRIPOS>SUBSTRUCTURE
     1 ZINC000461678839        1 TEMP              0 ****  ****    0 ROOT


##########                                Name:    ZINC000542980334
##########                DOCK_Rotatable_Bonds:                   6
##########                         Heavy_Atoms:                  27
##########                    Molecular_Weight:             404.795
##########                DOCK_Rotatable_Bonds:                   6
##########                       Formal_Charge:           0.0300001
##########                     HBond_Acceptors:                  10
##########                        HBond_Donors:                   1
##########                         Heavy_Atoms:                  27
##########                          Grid_Score:          -28.046694
##########                     Grid_vdw_energy:          -27.929272
##########                      Grid_es_energy:           -0.117421
##########           Internal_energy_repulsive:           13.010123

@<TRIPOS>MOLECULE
ZINC000542980334
 44 46 1 0 0
SMALL
USER_CHARGES


@<TRIPOS>ATOM
      1 O1         -4.8516    3.0754   49.3651 O.2     1  ZINC000542980334   -0.5800
      2 C2         -4.9842    3.2919   50.5542 C.2     1  ZINC000542980334    0.7100
      3 N3         -6.1739    3.0767   51.1498 N.am    1  ZINC000542980334   -0.7400
      4 C4         -7.3090    2.5875   50.3633 C.3     1  ZINC000542980334    0.1800
      5 C5         -8.2134    1.7649   51.2445 C.ar    1  ZINC000542980334   -0.1400
      6 C6         -7.8218    0.5010   51.6507 C.ar    1  ZINC000542980334    0.1300
      7 F7         -6.6287    0.0040   51.2574 F       1  ZINC000542980334   -0.1200
      8 C8         -8.6537   -0.2538   52.4608 C.ar    1  ZINC000542980334   -0.1500
      9 C9         -9.8738    0.2550   52.8632 C.ar    1  ZINC000542980334   -0.0700
     10 C10       -10.2648    1.5174   52.4575 C.ar    1  ZINC000542980334   -0.1200
     11 C11        -9.4328    2.2749   51.6525 C.ar    1  ZINC000542980334    0.0100
     12 Cl12       -9.9246    3.8602   51.1441 Cl      1  ZINC000542980334   -0.0400
     13 N13        -3.9400    3.7420   51.2778 N.am    1  ZINC000542980334   -0.6300
     14 C14        -2.6369    3.9814   50.6426 C.3     1  ZINC000542980334    0.1100
     15 C15        -1.5621    3.2127   51.4176 C.3     1  ZINC000542980334   -0.1300
     16 C16        -1.6233    3.6078   52.8948 C.3     1  ZINC000542980334   -0.1300
     17 C17        -2.9922    3.2343   53.4682 C.3     1  ZINC000542980334    0.1400
     18 H18        -3.1558    2.1630   53.3511 H       1  ZINC000542980334    0.1100
     19 N19        -3.0385    3.5835   54.8902 N.pl3   1  ZINC000542980334   -0.3400
     20 C20        -4.1055    4.0783   55.5519 C.2     1  ZINC000542980334    0.0600
     21 C21        -3.7406    4.2656   56.8415 C.2     1  ZINC000542980334   -0.2300
     22 C22        -2.4049    3.8716   56.9723 C.2     1  ZINC000542980334   -0.0200
     23 C23        -1.5922    3.9114   58.2407 C.3     1  ZINC000542980334    0.5600
     24 F24        -0.2565    4.1884   57.9302 F       1  ZINC000542980334   -0.1700
     25 F25        -2.0918    4.9101   59.0836 F       1  ZINC000542980334   -0.1700
     26 F26        -1.6737    2.6729   58.8860 F       1  ZINC000542980334   -0.1600
     27 N27        -1.9849    3.4569   55.8047 N.2     1  ZINC000542980334   -0.2300
     28 C28        -4.0848    4.0086   52.7153 C.3     1  ZINC000542980334    0.1300
     29 H29        -6.2787    3.2458   52.0992 H       1  ZINC000542980334    0.4000
     30 H30        -7.8651    3.4347   49.9621 H       1  ZINC000542980334    0.0900
     31 H31        -6.9432    1.9712   49.5420 H       1  ZINC000542980334    0.0900
     32 H32        -8.3489   -1.2402   52.7779 H       1  ZINC000542980334    0.1500
     33 H33       -10.5223   -0.3340   53.4947 H       1  ZINC000542980334    0.1500
     34 H34       -11.2187    1.9140   52.7722 H       1  ZINC000542980334    0.1500
     35 H35        -2.6637    3.6317   49.6106 H       1  ZINC000542980334    0.0800
     36 H36        -2.4104    5.0474   50.6636 H       1  ZINC000542980334    0.0800
     37 H37        -1.7391    2.1416   51.3198 H       1  ZINC000542980334    0.0800
     38 H38        -0.5789    3.4576   51.0159 H       1  ZINC000542980334    0.0900
     39 H39        -0.8434    3.0806   53.4444 H       1  ZINC000542980334    0.0800
     40 H40        -1.4709    4.6829   52.9898 H       1  ZINC000542980334    0.0800
     41 H41        -5.0765    4.2878   55.1281 H       1  ZINC000542980334    0.1900
     42 H42        -4.3694    4.6516   57.6301 H       1  ZINC000542980334    0.1600
     43 H43        -3.9746    5.0759   52.9074 H       1  ZINC000542980334    0.0800
     44 H44        -5.0666    3.6743   53.0507 H       1  ZINC000542980334    0.1100
@<TRIPOS>BOND
     1     1     2    2
     2     2     3   am
     3     2    13   am
     4     3     4    1
     5     3    29    1
     6     4     5    1
     7     4    30    1
     8     4    31    1
     9     5    11   ar
    10     5     6   ar
    11     6     7    1
    12     6     8   ar
    13     8     9   ar
    14     8    32    1
    15     9    10   ar
    16     9    33    1
    17    10    11   ar
    18    10    34    1
    19    11    12    1
    20    13    28    1
    21    13    14    1
    22    14    15    1
    23    14    35    1
    24    14    36    1
    25    15    16    1
    26    15    37    1
    27    15    38    1
    28    16    17    1
    29    16    39    1
    30    16    40    1
    31    17    18    1
    32    17    19    1
    33    17    28    1
    34    19    27    1
    35    19    20    1
    36    20    21    2
    37    20    41    1
    38    21    22    1
    39    21    42    1
    40    22    23    1
    41    22    27    2
    42    23    24    1
    43    23    25    1
    44    23    26    1
    45    28    43    1
    46    28    44    1
@<TRIPOS>SUBSTRUCTURE
     1 ZINC000542980334        1 TEMP              0 ****  ****    0 ROOT


##########                                Name:    ZINC000081577146
##########                DOCK_Rotatable_Bonds:                   4
##########                         Heavy_Atoms:                  25
##########                    Molecular_Weight:             355.464
##########                DOCK_Rotatable_Bonds:                   4
##########                       Formal_Charge:                0.02
##########                     HBond_Acceptors:                   7
##########                        HBond_Donors:                   0
##########                         Heavy_Atoms:                  25
##########                          Grid_Score:          -28.038504
##########                     Grid_vdw_energy:          -26.921757
##########                      Grid_es_energy:           -1.116748
##########           Internal_energy_repulsive:           11.240664

@<TRIPOS>MOLECULE
ZINC000081577146
 46 49 1 0 0
SMALL
USER_CHARGES


@<TRIPOS>ATOM
      1 C1          1.7596    1.2082   50.2746 C.3     1  ZINC000081577146   -0.0700
      2 C2          0.6683    2.1508   50.7127 C.2     1  ZINC000081577146    0.2900
      3 N3          0.9278    3.3950   50.9915 N.2     1  ZINC000081577146   -0.4800
      4 S4         -0.5591    4.0887   51.4346 S.3     1  ZINC000081577146    0.1900
      5 C5         -1.4594    2.6362   51.2143 C.2     1  ZINC000081577146    0.2700
      6 N6         -2.8166    2.4497   51.4048 N.3     1  ZINC000081577146   -0.4300
      7 C7         -3.5703    2.7871   50.1892 C.3     1  ZINC000081577146    0.0700
      8 C8         -5.0551    2.4924   50.4145 C.3     1  ZINC000081577146    0.0500
      9 N9         -5.5377    3.2715   51.5632 N.3     1  ZINC000081577146   -0.5200
     10 C10        -6.9791    3.0734   51.7655 C.3     1  ZINC000081577146    0.1900
     11 H11        -7.2132    2.0111   51.6959 H       1  ZINC000081577146    0.0700
     12 C12        -7.7548    3.8380   50.6910 C.3     1  ZINC000081577146   -0.1500
     13 C13        -7.3704    3.5857   53.1277 C.2     1  ZINC000081577146    0.1900
     14 N14        -7.5759    4.8356   53.4356 N.2     1  ZINC000081577146   -0.4500
     15 C15        -7.9063    4.9148   54.7333 C.2     1  ZINC000081577146   -0.0200
     16 C16        -7.9004    3.6529   55.2342 C.2     1  ZINC000081577146    0.0000
     17 C17        -8.2048    3.2557   56.6252 C.ar    1  ZINC000081577146   -0.0200
     18 C18        -8.1246    1.9150   57.0048 C.ar    1  ZINC000081577146   -0.1000
     19 C19        -8.4095    1.5511   58.3047 C.ar    1  ZINC000081577146   -0.1200
     20 C20        -8.7745    2.5117   59.2311 C.ar    1  ZINC000081577146   -0.1100
     21 C21        -8.8562    3.8423   58.8612 C.ar    1  ZINC000081577146   -0.1100
     22 C22        -8.5680    4.2205   57.5661 C.ar    1  ZINC000081577146   -0.0900
     23 O23        -7.5684    2.8292   54.2158 O.3     1  ZINC000081577146   -0.2000
     24 C24        -4.7840    2.9340   52.7789 C.3     1  ZINC000081577146    0.0600
     25 C25        -3.2991    3.2288   52.5535 C.3     1  ZINC000081577146    0.0500
     26 N26        -0.5753    1.7441   50.8200 N.2     1  ZINC000081577146   -0.5400
     27 H27         1.8533    1.2404   49.1891 H       1  ZINC000081577146    0.0900
     28 H28         2.7034    1.5084   50.7297 H       1  ZINC000081577146    0.0900
     29 H29         1.5113    0.1942   50.5880 H       1  ZINC000081577146    0.0900
     30 H30        -3.4399    3.8453   49.9625 H       1  ZINC000081577146    0.0700
     31 H31        -3.2030    2.1884   49.3557 H       1  ZINC000081577146    0.1100
     32 H32        -5.6200    2.7691   49.5243 H       1  ZINC000081577146    0.1000
     33 H33        -5.1886    1.4292   50.6143 H       1  ZINC000081577146    0.0600
     34 H34        -7.5208    4.9003   50.7606 H       1  ZINC000081577146    0.0800
     35 H35        -7.4719    3.4674   49.7057 H       1  ZINC000081577146    0.0800
     36 H36        -8.8243    3.6910   50.8411 H       1  ZINC000081577146    0.0700
     37 H37        -8.1353    5.8176   55.2799 H       1  ZINC000081577146    0.1900
     38 H38        -7.8406    1.1640   56.2824 H       1  ZINC000081577146    0.1300
     39 H39        -8.3479    0.5139   58.5997 H       1  ZINC000081577146    0.1300
     40 H40        -8.9968    2.2215   60.2473 H       1  ZINC000081577146    0.1300
     41 H41        -9.1424    4.5872   59.5891 H       1  ZINC000081577146    0.1300
     42 H42        -8.6317    5.2596   57.2788 H       1  ZINC000081577146    0.1300
     43 H43        -5.1512    3.5328   53.6124 H       1  ZINC000081577146    0.0900
     44 H44        -4.9144    1.8758   53.0055 H       1  ZINC000081577146    0.0500
     45 H45        -2.7343    2.9521   53.4438 H       1  ZINC000081577146    0.1000
     46 H46        -3.1657    4.2919   52.3537 H       1  ZINC000081577146    0.0800
@<TRIPOS>BOND
     1     1     2    1
     2     1    27    1
     3     1    28    1
     4     1    29    1
     5     2    26    1
     6     2     3    2
     7     3     4    1
     8     4     5    1
     9     5     6    1
    10     5    26    2
    11     6    25    1
    12     6     7    1
    13     7     8    1
    14     7    30    1
    15     7    31    1
    16     8     9    1
    17     8    32    1
    18     8    33    1
    19     9    10    1
    20     9    24    1
    21    10    11    1
    22    10    12    1
    23    10    13    1
    24    12    34    1
    25    12    35    1
    26    12    36    1
    27    13    23    1
    28    13    14    2
    29    14    15    1
    30    15    16    2
    31    15    37    1
    32    16    17    1
    33    16    23    1
    34    17    22   ar
    35    17    18   ar
    36    18    19   ar
    37    18    38    1
    38    19    20   ar
    39    19    39    1
    40    20    21   ar
    41    20    40    1
    42    21    22   ar
    43    21    41    1
    44    22    42    1
    45    24    25    1
    46    24    43    1
    47    24    44    1
    48    25    45    1
    49    25    46    1
@<TRIPOS>SUBSTRUCTURE
     1 ZINC000081577146        1 TEMP              0 ****  ****    0 ROOT


##########                                Name:    ZINC000459459628
##########                DOCK_Rotatable_Bonds:                   8
##########                         Heavy_Atoms:                  27
##########                    Molecular_Weight:             377.366
##########                DOCK_Rotatable_Bonds:                   8
##########                       Formal_Charge:         -0.00999984
##########                     HBond_Acceptors:                   8
##########                        HBond_Donors:                   1
##########                         Heavy_Atoms:                  27
##########                          Grid_Score:          -27.997452
##########                     Grid_vdw_energy:          -25.610506
##########                      Grid_es_energy:           -2.386945
##########           Internal_energy_repulsive:           13.644606

@<TRIPOS>MOLECULE
ZINC000459459628
 45 46 1 0 0
SMALL
USER_CHARGES


@<TRIPOS>ATOM
      1 C1         -7.1372    0.2548   51.7287 C.3     1  ZINC000459459628   -0.1600
      2 C2         -7.3398    1.6967   52.1988 C.3     1  ZINC000459459628    0.1600
      3 H3         -6.9159    1.8167   53.1959 H       1  ZINC000459459628    0.1100
      4 C4         -8.8360    2.0145   52.2391 C.3     1  ZINC000459459628   -0.0900
      5 C5         -9.4877    1.2243   53.3445 C.ar    1  ZINC000459459628   -0.0500
      6 C6        -10.2242    0.0939   53.0441 C.ar    1  ZINC000459459628   -0.1200
      7 C7        -10.8228   -0.6320   54.0572 C.ar    1  ZINC000459459628   -0.0900
      8 C8        -10.6853   -0.2282   55.3714 C.ar    1  ZINC000459459628   -0.1600
      9 C9         -9.9471    0.9038   55.6737 C.ar    1  ZINC000459459628    0.1000
     10 F10        -9.8120    1.2997   56.9583 F       1  ZINC000459459628   -0.1400
     11 C11        -9.3439    1.6270   54.6589 C.ar    1  ZINC000459459628   -0.1500
     12 N12        -6.6710    2.6117   51.2705 N.am    1  ZINC000459459628   -0.6200
     13 C13        -7.3573    3.0507   50.0529 C.3     1  ZINC000459459628    0.0700
     14 C14        -5.4245    3.0494   51.5366 C.2     1  ZINC000459459628    0.7100
     15 O15        -4.8687    3.8076   50.7655 O.2     1  ZINC000459459628   -0.5700
     16 N16        -4.7938    2.6466   52.6576 N.am    1  ZINC000459459628   -0.6800
     17 C17        -3.4972    3.1019   52.9345 C.ar    1  ZINC000459459628    0.1500
     18 C18        -2.4408    2.7108   52.1327 C.ar    1  ZINC000459459628   -0.0400
     19 C19        -1.1498    3.1674   52.4119 C.ar    1  ZINC000459459628   -0.0300
     20 C20        -0.0521    2.7658   51.5846 C.1     1  ZINC000459459628    0.2600
     21 N21         0.8187    2.4473   50.9283 N.1     1  ZINC000459459628   -0.4100
     22 C22        -0.9324    4.0167   53.4996 C.ar    1  ZINC000459459628   -0.0500
     23 C23        -1.9900    4.4026   54.2956 C.ar    1  ZINC000459459628   -0.1700
     24 C24        -3.2730    3.9547   54.0161 C.ar    1  ZINC000459459628    0.1100
     25 O25        -4.3113    4.3381   54.8034 O.3     1  ZINC000459459628   -0.3200
     26 C26        -4.8063    3.3770   55.7379 C.3     1  ZINC000459459628    0.4100
     27 F27        -4.0831    3.4719   56.9317 F       1  ZINC000459459628   -0.1900
     28 F28        -6.1593    3.6268   55.9912 F       1  ZINC000459459628   -0.1900
     29 H29        -7.5611    0.1349   50.7316 H       1  ZINC000459459628    0.0600
     30 H30        -6.0714    0.0285   51.6999 H       1  ZINC000459459628    0.0600
     31 H31        -7.6348   -0.4259   52.4193 H       1  ZINC000459459628    0.0700
     32 H32        -8.9763    3.0798   52.4225 H       1  ZINC000459459628    0.0800
     33 H33        -9.2899    1.7471   51.2849 H       1  ZINC000459459628    0.0900
     34 H34       -10.3326   -0.2223   52.0171 H       1  ZINC000459459628    0.1300
     35 H35       -11.3983   -1.5149   53.8212 H       1  ZINC000459459628    0.1300
     36 H36       -11.1534   -0.7950   56.1626 H       1  ZINC000459459628    0.1300
     37 H37        -8.7678    2.5098   54.8935 H       1  ZINC000459459628    0.1300
     38 H38        -7.9181    3.9620   50.2605 H       1  ZINC000459459628    0.0600
     39 H39        -6.6224    3.2462   49.2720 H       1  ZINC000459459628    0.0700
     40 H40        -8.0420    2.2705   49.7204 H       1  ZINC000459459628    0.0800
     41 H41        -5.2372    2.0417   53.2728 H       1  ZINC000459459628    0.4100
     42 H42        -2.6128    2.0537   51.2929 H       1  ZINC000459459628    0.1600
     43 H43         0.0643    4.3707   53.7173 H       1  ZINC000459459628    0.1400
     44 H44        -1.8199    5.0587   55.1364 H       1  ZINC000459459628    0.1500
     45 H45        -4.6932    2.3753   55.3232 H       1  ZINC000459459628    0.1900
@<TRIPOS>BOND
     1     1     2    1
     2     1    29    1
     3     1    30    1
     4     1    31    1
     5     2     3    1
     6     2     4    1
     7     2    12    1
     8     4     5    1
     9     4    32    1
    10     4    33    1
    11     5    11   ar
    12     5     6   ar
    13     6     7   ar
    14     6    34    1
    15     7     8   ar
    16     7    35    1
    17     8     9   ar
    18     8    36    1
    19     9    10    1
    20     9    11   ar
    21    11    37    1
    22    12    13    1
    23    12    14   am
    24    13    38    1
    25    13    39    1
    26    13    40    1
    27    14    15    2
    28    14    16   am
    29    16    17    1
    30    16    41    1
    31    17    24   ar
    32    17    18   ar
    33    18    19   ar
    34    18    42    1
    35    19    20    1
    36    19    22   ar
    37    20    21    3
    38    22    23   ar
    39    22    43    1
    40    23    24   ar
    41    23    44    1
    42    24    25    1
    43    25    26    1
    44    26    27    1
    45    26    28    1
    46    26    45    1
@<TRIPOS>SUBSTRUCTURE
     1 ZINC000459459628        1 TEMP              0 ****  ****    0 ROOT


##########                                Name:    ZINC000618094467
##########                DOCK_Rotatable_Bonds:                   5
##########                         Heavy_Atoms:                  27
##########                    Molecular_Weight:             370.492
##########                DOCK_Rotatable_Bonds:                   5
##########                       Formal_Charge:                0.03
##########                     HBond_Acceptors:                   5
##########                        HBond_Donors:                   0
##########                         Heavy_Atoms:                  27
##########                          Grid_Score:          -27.995644
##########                     Grid_vdw_energy:          -27.637484
##########                      Grid_es_energy:           -0.358160
##########           Internal_energy_repulsive:          107.326065

@<TRIPOS>MOLECULE
ZINC000618094467
 57 59 1 0 0
SMALL
USER_CHARGES


@<TRIPOS>ATOM
      1 C1        -16.2279    0.1515   61.5479 C.3     1  ZINC000618094467   -0.1500
      2 C2        -14.9713   -0.0764   60.7053 C.3     1  ZINC000618094467   -0.1000
      3 C3        -14.2458   -1.3293   61.2000 C.3     1  ZINC000618094467   -0.1100
      4 H4        -13.9543   -1.1929   62.2415 H       1  ZINC000618094467    0.1000
      5 C5        -15.1780   -2.5372   61.0854 C.3     1  ZINC000618094467   -0.1500
      6 C6        -13.0162   -1.5623   60.3605 C.2     1  ZINC000618094467    0.5200
      7 O7        -13.0112   -2.4392   59.5227 O.2     1  ZINC000618094467   -0.5000
      8 N8        -11.9221   -0.7961   60.5405 N.am    1  ZINC000618094467   -0.6100
      9 C9        -11.8963    0.2725   61.5450 C.3     1  ZINC000618094467    0.1400
     10 C10       -10.5943    0.2241   62.3045 C.ar    1  ZINC000618094467   -0.1000
     11 C11       -10.4850    0.9969   63.4522 C.ar    1  ZINC000618094467   -0.1100
     12 C12        -9.3152    1.0024   64.1842 C.ar    1  ZINC000618094467   -0.1200
     13 C13        -8.2440    0.2332   63.7701 C.ar    1  ZINC000618094467   -0.1100
     14 C14        -8.3529   -0.5385   62.6318 C.ar    1  ZINC000618094467   -0.1200
     15 C15        -9.5316   -0.5506   61.8962 C.ar    1  ZINC000618094467   -0.0600
     16 C16        -9.5868   -1.4380   60.6806 C.3     1  ZINC000618094467   -0.0800
     17 C17       -10.7031   -1.0022   59.7412 C.3     1  ZINC000618094467    0.1200
     18 H18       -10.4281   -0.0691   59.2495 H       1  ZINC000618094467    0.1000
     19 C19       -10.9453   -2.0712   58.7068 C.2     1  ZINC000618094467    0.5500
     20 O20       -10.8678   -3.2417   59.0148 O.2     1  ZINC000618094467   -0.5200
     21 N21       -11.2478   -1.7264   57.4395 N.am    1  ZINC000618094467   -0.6100
     22 C22       -11.4912   -2.7610   56.4262 C.3     1  ZINC000618094467    0.1200
     23 C23       -12.8928   -2.5555   55.8375 C.3     1  ZINC000618094467   -0.1600
     24 H24       -13.0175   -3.1869   54.9577 H       1  ZINC000618094467    0.1100
     25 C25       -13.9490   -2.9161   56.8841 C.3     1  ZINC000618094467   -0.1400
     26 C26       -13.0383   -1.1015   55.4458 C.2     1  ZINC000618094467    0.3700
     27 O27       -13.3884   -0.7931   54.3319 O.2     1  ZINC000618094467   -0.4400
     28 C28       -12.7354   -0.0431   56.4835 C.3     1  ZINC000618094467   -0.1600
     29 H29       -13.4747   -0.0906   57.2830 H       1  ZINC000618094467    0.1100
     30 C30       -12.7689    1.3411   55.8327 C.3     1  ZINC000618094467   -0.1400
     31 C31       -11.3437   -0.3116   57.0574 C.3     1  ZINC000618094467    0.1400
     32 H32       -15.9458    0.2836   62.5925 H       1  ZINC000618094467    0.0500
     33 H33       -16.7447    1.0441   61.1954 H       1  ZINC000618094467    0.0600
     34 H34       -16.8882   -0.7109   61.4562 H       1  ZINC000618094467    0.0600
     35 H35       -15.2534   -0.2086   59.6607 H       1  ZINC000618094467    0.0700
     36 H36       -14.3110    0.7859   60.7971 H       1  ZINC000618094467    0.0700
     37 H37       -15.5785   -2.5922   60.0732 H       1  ZINC000618094467    0.0700
     38 H38       -14.6211   -3.4479   61.3059 H       1  ZINC000618094467    0.0700
     39 H39       -15.9981   -2.4319   61.7956 H       1  ZINC000618094467    0.0700
     40 H40       -11.9912    1.2386   61.0493 H       1  ZINC000618094467    0.0900
     41 H41       -12.7262    0.1384   62.2388 H       1  ZINC000618094467    0.1100
     42 H42       -11.3217    1.5990   63.7746 H       1  ZINC000618094467    0.1300
     43 H43        -9.2367    1.6053   65.0768 H       1  ZINC000618094467    0.1300
     44 H44        -7.3242    0.2364   64.3361 H       1  ZINC000618094467    0.1200
     45 H45        -7.5146   -1.1381   62.3094 H       1  ZINC000618094467    0.1200
     46 H46        -8.6333   -1.3858   60.1550 H       1  ZINC000618094467    0.0900
     47 H47        -9.7661   -2.4661   60.9951 H       1  ZINC000618094467    0.1000
     48 H48       -10.7467   -2.6794   55.6343 H       1  ZINC000618094467    0.0700
     49 H49       -11.4298   -3.7465   56.8880 H       1  ZINC000618094467    0.0900
     50 H50       -13.8828   -2.2214   57.7215 H       1  ZINC000618094467    0.0600
     51 H51       -14.9408   -2.8520   56.4364 H       1  ZINC000618094467    0.0600
     52 H52       -13.7760   -3.9317   57.2400 H       1  ZINC000618094467    0.0700
     53 H53       -13.7581    1.5206   55.4114 H       1  ZINC000618094467    0.0700
     54 H54       -12.5502    2.1009   56.5830 H       1  ZINC000618094467    0.0700
     55 H55       -12.0225    1.3881   55.0398 H       1  ZINC000618094467    0.0600
     56 H56       -11.1826    0.3162   57.9338 H       1  ZINC000618094467    0.1100
     57 H57       -10.5885   -0.0906   56.3032 H       1  ZINC000618094467    0.0700
@<TRIPOS>BOND
     1     1     2    1
     2     1    32    1
     3     1    33    1
     4     1    34    1
     5     2     3    1
     6     2    35    1
     7     2    36    1
     8     3     4    1
     9     3     5    1
    10     3     6    1
    11     5    37    1
    12     5    38    1
    13     5    39    1
    14     6     7    2
    15     6     8   am
    16     8    17    1
    17     8     9    1
    18     9    10    1
    19     9    40    1
    20     9    41    1
    21    10    15   ar
    22    10    11   ar
    23    11    12   ar
    24    11    42    1
    25    12    13   ar
    26    12    43    1
    27    13    14   ar
    28    13    44    1
    29    14    15   ar
    30    14    45    1
    31    15    16    1
    32    16    17    1
    33    16    46    1
    34    16    47    1
    35    17    18    1
    36    17    19    1
    37    19    20    2
    38    19    21   am
    39    21    31    1
    40    21    22    1
    41    22    23    1
    42    22    48    1
    43    22    49    1
    44    23    24    1
    45    23    25    1
    46    23    26    1
    47    25    50    1
    48    25    51    1
    49    25    52    1
    50    26    27    2
    51    26    28    1
    52    28    29    1
    53    28    30    1
    54    28    31    1
    55    30    53    1
    56    30    54    1
    57    30    55    1
    58    31    56    1
    59    31    57    1
@<TRIPOS>SUBSTRUCTURE
     1 ZINC000618094467        1 TEMP              0 ****  ****    0 ROOT


##########                                Name:    ZINC000433533595
##########                DOCK_Rotatable_Bonds:                  10
##########                         Heavy_Atoms:                  24
##########                    Molecular_Weight:             397.312
##########                DOCK_Rotatable_Bonds:                  10
##########                       Formal_Charge:          0.00999916
##########                     HBond_Acceptors:                   5
##########                        HBond_Donors:                   1
##########                         Heavy_Atoms:                  24
##########                          Grid_Score:          -27.991566
##########                     Grid_vdw_energy:          -27.479605
##########                      Grid_es_energy:           -0.511961
##########           Internal_energy_repulsive:           24.785456

@<TRIPOS>MOLECULE
ZINC000433533595
 49 50 1 0 0
SMALL
USER_CHARGES


@<TRIPOS>ATOM
      1 C1         -3.1576    7.1867   59.1340 C.3     1  ZINC000433533595   -0.1500
      2 C2         -3.9334    7.5418   57.8641 C.3     1  ZINC000433533595   -0.1200
      3 C3         -4.1643    6.2758   57.0366 C.3     1  ZINC000433533595   -0.1300
      4 C4         -4.9683    5.2678   57.8602 C.3     1  ZINC000433533595    0.1000
      5 N5         -5.3832    4.1558   57.0013 N.am    1  ZINC000433533595   -0.5500
      6 C6         -6.5158    4.2501   56.2769 C.2     1  ZINC000433533595    0.5100
      7 O7         -7.1920    5.2561   56.3362 O.2     1  ZINC000433533595   -0.5100
      8 C8         -6.9388    3.1166   55.4015 C.2     1  ZINC000433533595    0.5000
      9 O9         -7.1343    2.0190   55.8817 O.2     1  ZINC000433533595   -0.4900
     10 N10        -7.1034    3.3122   54.0782 N.am    1  ZINC000433533595   -0.6300
     11 C11        -7.4996    2.2506   53.2582 C.ar    1  ZINC000433533595    0.1200
     12 C12        -8.5645    1.4432   53.6314 C.ar    1  ZINC000433533595   -0.0600
     13 C13        -8.9540    0.3942   52.8188 C.ar    1  ZINC000433533595   -0.1100
     14 Br14      -10.4059   -0.7050   53.3285 Br      1  ZINC000433533595   -0.0400
     15 C15        -8.2844    0.1476   51.6337 C.ar    1  ZINC000433533595   -0.0600
     16 C16        -7.2223    0.9482   51.2556 C.ar    1  ZINC000433533595   -0.1900
     17 C17        -6.8294    2.0043   52.0609 C.ar    1  ZINC000433533595    0.1300
     18 O18        -5.7851    2.7923   51.6899 O.3     1  ZINC000433533595   -0.3100
     19 C19        -4.5552    2.1350   51.3777 C.3     1  ZINC000433533595    0.0800
     20 C20        -4.1173    2.5179   49.9626 C.3     1  ZINC000433533595   -0.1500
     21 C21        -3.4797    2.5637   52.3779 C.3     1  ZINC000433533595   -0.1800
     22 C22        -4.5669    2.9414   56.9299 C.3     1  ZINC000433533595    0.0600
     23 C23        -3.3609    2.9552   55.9886 C.3     1  ZINC000433533595   -0.1900
     24 C24        -3.1498    3.0080   57.5031 C.3     1  ZINC000433533595   -0.1800
     25 H25        -2.1966    6.7498   58.8626 H       1  ZINC000433533595    0.0500
     26 H26        -2.9931    8.0887   59.7235 H       1  ZINC000433533595    0.0500
     27 H27        -3.7305    6.4686   59.7208 H       1  ZINC000433533595    0.0500
     28 H28        -4.8944    7.9788   58.1355 H       1  ZINC000433533595    0.0700
     29 H29        -3.3605    8.2600   57.2772 H       1  ZINC000433533595    0.0600
     30 H30        -4.7170    6.5289   56.1318 H       1  ZINC000433533595    0.0600
     31 H31        -3.2034    5.8390   56.7650 H       1  ZINC000433533595    0.0700
     32 H32        -4.3501    4.8877   58.6734 H       1  ZINC000433533595    0.1100
     33 H33        -5.8506    5.7571   58.2727 H       1  ZINC000433533595    0.0800
     34 H34        -6.9471    4.1893   53.6945 H       1  ZINC000433533595    0.4300
     35 H35        -9.0886    1.6335   54.5563 H       1  ZINC000433533595    0.1600
     36 H36        -8.5918   -0.6730   51.0023 H       1  ZINC000433533595    0.1400
     37 H37        -6.7018    0.7527   50.3297 H       1  ZINC000433533595    0.1500
     38 H38        -4.6954    1.0556   51.4352 H       1  ZINC000433533595    0.0800
     39 H39        -3.9772    3.5973   49.9052 H       1  ZINC000433533595    0.0700
     40 H40        -3.1792    2.0165   49.7244 H       1  ZINC000433533595    0.0800
     41 H41        -4.8836    2.2125   49.2500 H       1  ZINC000433533595    0.0700
     42 H42        -3.3396    3.6431   52.3205 H       1  ZINC000433533595    0.0700
     43 H43        -3.7917    2.2910   53.3861 H       1  ZINC000433533595    0.0600
     44 H44        -2.5416    2.0624   52.1397 H       1  ZINC000433533595    0.0800
     45 H45        -5.1101    2.0027   57.0386 H       1  ZINC000433533595    0.1400
     46 H46        -3.1105    2.0256   55.4776 H       1  ZINC000433533595    0.0900
     47 H47        -3.1748    3.8680   55.4225 H       1  ZINC000433533595    0.1400
     48 H48        -2.8250    3.9554   57.9333 H       1  ZINC000433533595    0.1000
     49 H49        -2.7607    2.1130   57.9885 H       1  ZINC000433533595    0.1000
@<TRIPOS>BOND
     1     1     2    1
     2     1    25    1
     3     1    26    1
     4     1    27    1
     5     2     3    1
     6     2    28    1
     7     2    29    1
     8     3     4    1
     9     3    30    1
    10     3    31    1
    11     4     5    1
    12     4    32    1
    13     4    33    1
    14     5     6   am
    15     5    22    1
    16     6     7    2
    17     6     8    1
    18     8     9    2
    19     8    10   am
    20    10    11    1
    21    10    34    1
    22    11    17   ar
    23    11    12   ar
    24    12    13   ar
    25    12    35    1
    26    13    14    1
    27    13    15   ar
    28    15    16   ar
    29    15    36    1
    30    16    17   ar
    31    16    37    1
    32    17    18    1
    33    18    19    1
    34    19    20    1
    35    19    21    1
    36    19    38    1
    37    20    39    1
    38    20    40    1
    39    20    41    1
    40    21    42    1
    41    21    43    1
    42    21    44    1
    43    22    24    1
    44    22    23    1
    45    22    45    1
    46    23    24    1
    47    23    46    1
    48    23    47    1
    49    24    48    1
    50    24    49    1
@<TRIPOS>SUBSTRUCTURE
     1 ZINC000433533595        1 TEMP              0 ****  ****    0 ROOT


##########                                Name:    ZINC000279593480
##########                DOCK_Rotatable_Bonds:                   9
##########                         Heavy_Atoms:                  23
##########                    Molecular_Weight:              340.85
##########                DOCK_Rotatable_Bonds:                   9
##########                       Formal_Charge:          -0.0500002
##########                     HBond_Acceptors:                   6
##########                        HBond_Donors:                   3
##########                         Heavy_Atoms:                  23
##########                          Grid_Score:          -27.972345
##########                     Grid_vdw_energy:          -25.844172
##########                      Grid_es_energy:           -2.128173
##########           Internal_energy_repulsive:           18.232889

@<TRIPOS>MOLECULE
ZINC000279593480
 48 49 1 0 0
SMALL
USER_CHARGES


@<TRIPOS>ATOM
      1 C1        -10.5890    2.7109   67.4748 C.3     1  ZINC000279593480   -0.1400
      2 C2         -9.1100    2.4603   67.7762 C.3     1  ZINC000279593480   -0.1400
      3 C3         -8.6236    1.2521   66.9734 C.3     1  ZINC000279593480    0.1700
      4 H4         -9.2050    0.3731   67.2514 H       1  ZINC000279593480    0.0900
      5 C5         -7.1446    1.0015   67.2748 C.3     1  ZINC000279593480   -0.0900
      6 C6         -6.3407    2.2169   66.8904 C.ar    1  ZINC000279593480   -0.0800
      7 C7         -5.8283    2.3300   65.6114 C.ar    1  ZINC000279593480   -0.1000
      8 C8         -5.0909    3.4445   65.2582 C.ar    1  ZINC000279593480   -0.1100
      9 C9         -4.8658    4.4469   66.1849 C.ar    1  ZINC000279593480   -0.0400
     10 Cl10       -3.9402    5.8471   65.7418 Cl      1  ZINC000279593480   -0.0700
     11 C11        -5.3789    4.3330   67.4646 C.ar    1  ZINC000279593480   -0.1100
     12 C12        -6.1209    3.2207   67.8150 C.ar    1  ZINC000279593480   -0.1000
     13 N13        -8.7923    1.5166   65.5424 N.am    1  ZINC000279593480   -0.7400
     14 C14        -8.7009    0.5063   64.6550 C.2     1  ZINC000279593480    0.7100
     15 O15        -8.4800   -0.6249   65.0423 O.2     1  ZINC000279593480   -0.5800
     16 N16        -8.8545    0.7498   63.3383 N.am    1  ZINC000279593480   -0.7500
     17 C17        -8.7569   -0.3486   62.3740 C.3     1  ZINC000279593480    0.1200
     18 C18        -9.7582   -0.1217   61.2395 C.3     1  ZINC000279593480    0.0900
     19 O19       -11.0906   -0.0660   61.7530 O.3     1  ZINC000279593480   -0.5400
     20 C20        -9.4176    1.1728   60.4677 C.3     1  ZINC000279593480   -0.1900
     21 C21        -9.1277    0.6875   59.0301 C.3     1  ZINC000279593480    0.0500
     22 O22        -9.8363   -0.5656   58.9137 O.3     1  ZINC000279593480   -0.3600
     23 C23        -9.6337   -1.2361   60.1769 C.3     1  ZINC000279593480    0.0900
     24 H24        -8.6414   -1.6857   60.2129 H       1  ZINC000279593480    0.0800
     25 C25       -10.7091   -2.3030   60.3920 C.3     1  ZINC000279593480   -0.1400
     26 H26       -11.1705    1.8319   67.7528 H       1  ZINC000279593480    0.0600
     27 H27       -10.9355    3.5717   68.0467 H       1  ZINC000279593480    0.0400
     28 H28       -10.7145    2.9077   66.4101 H       1  ZINC000279593480    0.0600
     29 H29        -8.5285    3.3392   67.4981 H       1  ZINC000279593480    0.0600
     30 H30        -8.9845    2.2635   68.8409 H       1  ZINC000279593480    0.0700
     31 H31        -7.0190    0.8047   68.3395 H       1  ZINC000279593480    0.0800
     32 H32        -6.7980    0.1408   66.7029 H       1  ZINC000279593480    0.0900
     33 H33        -6.0039    1.5474   64.8882 H       1  ZINC000279593480    0.1300
     34 H34        -4.6903    3.5326   64.2591 H       1  ZINC000279593480    0.1300
     35 H35        -5.2032    5.1149   68.1886 H       1  ZINC000279593480    0.1300
     36 H36        -6.5218    3.1319   68.8139 H       1  ZINC000279593480    0.1300
     37 H37        -8.9696    2.4188   65.2335 H       1  ZINC000279593480    0.3900
     38 H38        -9.0296    1.6525   63.0293 H       1  ZINC000279593480    0.3900
     39 H39        -7.7471   -0.3849   61.9655 H       1  ZINC000279593480    0.0800
     40 H40        -8.9811   -1.2914   62.8731 H       1  ZINC000279593480    0.0800
     41 H41       -11.1380    0.0546   62.7112 H       1  ZINC000279593480    0.3700
     42 H42       -10.2661    1.8568   60.4761 H       1  ZINC000279593480    0.0900
     43 H43        -8.5360    1.6511   60.8944 H       1  ZINC000279593480    0.0900
     44 H44        -9.5062    1.4063   58.3034 H       1  ZINC000279593480    0.1000
     45 H45        -8.0579    0.5328   58.8903 H       1  ZINC000279593480    0.0600
     46 H46       -10.6417   -3.0512   59.6023 H       1  ZINC000279593480    0.0600
     47 H47       -10.5577   -2.7813   61.3597 H       1  ZINC000279593480    0.0700
     48 H48       -11.6939   -1.8364   60.3674 H       1  ZINC000279593480    0.0700
@<TRIPOS>BOND
     1     1     2    1
     2     1    26    1
     3     1    27    1
     4     1    28    1
     5     2     3    1
     6     2    29    1
     7     2    30    1
     8     3     4    1
     9     3     5    1
    10     3    13    1
    11     5     6    1
    12     5    31    1
    13     5    32    1
    14     6    12   ar
    15     6     7   ar
    16     7     8   ar
    17     7    33    1
    18     8     9   ar
    19     8    34    1
    20     9    10    1
    21     9    11   ar
    22    11    12   ar
    23    11    35    1
    24    12    36    1
    25    13    14   am
    26    13    37    1
    27    14    15    2
    28    14    16   am
    29    16    17    1
    30    16    38    1
    31    17    18    1
    32    17    39    1
    33    17    40    1
    34    18    23    1
    35    18    19    1
    36    18    20    1
    37    19    41    1
    38    20    21    1
    39    20    42    1
    40    20    43    1
    41    21    22    1
    42    21    44    1
    43    21    45    1
    44    22    23    1
    45    23    24    1
    46    23    25    1
    47    25    46    1
    48    25    47    1
    49    25    48    1
@<TRIPOS>SUBSTRUCTURE
     1 ZINC000279593480        1 TEMP              0 ****  ****    0 ROOT


##########                                Name:    ZINC000012979878
##########                DOCK_Rotatable_Bonds:                   7
##########                         Heavy_Atoms:                  26
##########                    Molecular_Weight:             388.874
##########                DOCK_Rotatable_Bonds:                   7
##########                       Formal_Charge:          -0.0100003
##########                     HBond_Acceptors:                   7
##########                        HBond_Donors:                   1
##########                         Heavy_Atoms:                  26
##########                          Grid_Score:          -27.935316
##########                     Grid_vdw_energy:          -26.782259
##########                      Grid_es_energy:           -1.153057
##########           Internal_energy_repulsive:           13.372547

@<TRIPOS>MOLECULE
ZINC000012979878
 43 45 1 0 0
SMALL
USER_CHARGES


@<TRIPOS>ATOM
      1 C1          1.5186    6.0158   50.1119 C.3     1  <0>         0.0300
      2 O2          2.2564    4.8045   49.9372 O.3     1  <0>        -0.3100
      3 C3          1.6527    3.6522   50.3306 C.ar    1  <0>         0.1500
      4 C4          2.3120    2.4394   50.1884 C.ar    1  <0>        -0.2200
      5 C5          1.6993    1.2666   50.5876 C.ar    1  <0>        -0.0600
      6 C6          0.4293    1.2976   51.1295 C.ar    1  <0>        -0.1800
      7 C7         -0.2357    2.5091   51.2743 C.ar    1  <0>         0.1800
      8 N8         -1.5215    2.5406   51.8230 N.am    1  <0>        -0.6700
      9 C9         -2.5399    3.0788   51.1231 C.2     1  <0>         0.6000
     10 O10        -2.3403    3.5373   50.0136 O.2     1  <0>        -0.4900
     11 C11        -3.8884    3.1119   51.6985 C.2     1  <0>        -0.3000
     12 C12        -4.5572    4.2196   52.1064 C.2     1  <0>         0.1600
     13 C13        -3.9757    5.6070   52.0153 C.3     1  <0>        -0.0900
     14 N14        -5.7519    3.9791   52.5853 N.2     1  <0>        -0.4500
     15 C15        -6.1446    2.7462   52.6130 C.2     1  <0>         0.0600
     16 C16        -7.4826    2.2810   53.1274 C.3     1  <0>         0.1300
     17 O17        -7.7182    0.9390   52.6964 O.3     1  <0>        -0.3000
     18 C18        -8.9630    0.4341   52.9034 C.ar    1  <0>         0.1300
     19 C19        -9.7942    1.0043   53.8565 C.ar    1  <0>        -0.2000
     20 C20       -11.0590    0.4896   54.0654 C.ar    1  <0>        -0.0700
     21 C21       -11.4969   -0.5943   53.3251 C.ar    1  <0>        -0.0700
     22 Cl22      -13.0866   -1.2396   53.5898 Cl      1  <0>        -0.0700
     23 C23       -10.6695   -1.1640   52.3737 C.ar    1  <0>        -0.0700
     24 C24        -9.4061   -0.6486   52.1578 C.ar    1  <0>        -0.1300
     25 S25        -4.9336    1.7208   51.9769 S.3     1  <0>         0.2000
     26 C26         0.3803    3.6882   50.8793 C.ar    1  <0>        -0.1500
     27 H27         0.5911    5.9617   49.5419 H       1  <0>         0.0600
     28 H28         1.2884    6.1518   51.1686 H       1  <0>         0.0600
     29 H29         2.1138    6.8579   49.7585 H       1  <0>         0.1000
     30 H30         3.3052    2.4120   49.7649 H       1  <0>         0.1300
     31 H31         2.2144    0.3241   50.4751 H       1  <0>         0.1300
     32 H32        -0.0473    0.3798   51.4406 H       1  <0>         0.1300
     33 H33        -1.6806    2.1753   52.7073 H       1  <0>         0.4100
     34 H34        -4.2348    6.0470   51.0522 H       1  <0>         0.0900
     35 H35        -4.3807    6.2241   52.8174 H       1  <0>         0.0800
     36 H36        -2.8912    5.5534   52.1103 H       1  <0>         0.1000
     37 H37        -7.4860    2.3187   54.2167 H       1  <0>         0.0900
     38 H38        -8.2670    2.9304   52.7388 H       1  <0>         0.1000
     39 H39        -9.4525    1.8497   54.4351 H       1  <0>         0.1400
     40 H40       -11.7064    0.9333   54.8073 H       1  <0>         0.1400
     41 H41       -11.0131   -2.0098   51.7965 H       1  <0>         0.1400
     42 H42        -8.7605   -1.0937   51.4151 H       1  <0>         0.1400
     43 H43        -0.1342    4.6312   50.9911 H       1  <0>         0.1400
@<TRIPOS>BOND
     1     1     2    1
     2     1    27    1
     3     1    28    1
     4     1    29    1
     5     2     3    1
     6     3    26   ar
     7     3     4   ar
     8     4     5   ar
     9     4    30    1
    10     5     6   ar
    11     5    31    1
    12     6     7   ar
    13     6    32    1
    14     7     8    1
    15     7    26   ar
    16     8     9   am
    17     8    33    1
    18     9    10    2
    19     9    11    1
    20    11    25    1
    21    11    12    2
    22    12    13    1
    23    12    14    1
    24    13    34    1
    25    13    35    1
    26    13    36    1
    27    14    15    2
    28    15    16    1
    29    15    25    1
    30    16    17    1
    31    16    37    1
    32    16    38    1
    33    17    18    1
    34    18    24   ar
    35    18    19   ar
    36    19    20   ar
    37    19    39    1
    38    20    21   ar
    39    20    40    1
    40    21    22    1
    41    21    23   ar
    42    23    24   ar
    43    23    41    1
    44    24    42    1
    45    26    43    1
@<TRIPOS>SUBSTRUCTURE
     1 <0>         1 TEMP              0 ****  ****    0 ROOT


##########                                Name:    ZINC000052999724
##########                DOCK_Rotatable_Bonds:                   6
##########                         Heavy_Atoms:                  25
##########                    Molecular_Weight:             398.571
##########                DOCK_Rotatable_Bonds:                   6
##########                       Formal_Charge:           0.0399994
##########                     HBond_Acceptors:                   8
##########                        HBond_Donors:                   1
##########                         Heavy_Atoms:                  25
##########                          Grid_Score:          -27.926670
##########                     Grid_vdw_energy:          -28.665819
##########                      Grid_es_energy:            0.739149
##########           Internal_energy_repulsive:           11.566499

@<TRIPOS>MOLECULE
ZINC000052999724
 47 49 1 0 0
SMALL
USER_CHARGES


@<TRIPOS>ATOM
      1 C1        -10.4446    1.9570   56.5841 C.3     1  ZINC000052999724   -0.1400
      2 C2         -9.3141    1.3581   57.4233 C.3     1  ZINC000052999724   -0.0400
      3 C3         -7.9808    1.9763   56.9980 C.3     1  ZINC000052999724   -0.1400
      4 C4         -9.5613    1.6505   58.8808 C.2     1  ZINC000052999724   -0.0400
      5 C5         -9.6733    0.6775   59.8338 C.2     1  ZINC000052999724   -0.2600
      6 C6         -9.5725   -0.7648   59.5924 C.2     1  ZINC000052999724    0.6000
      7 O7         -8.4805   -1.3011   59.5580 O.2     1  ZINC000052999724   -0.5200
      8 N8        -10.6890   -1.4969   59.4084 N.am    1  ZINC000052999724   -0.6000
      9 C9        -12.0139   -0.8627   59.4411 C.3     1  ZINC000052999724    0.1100
     10 C10       -12.7640   -1.2211   58.1544 C.3     1  ZINC000052999724   -0.1400
     11 C11       -12.7993   -2.7429   57.9963 C.3     1  ZINC000052999724    0.1500
     12 N12       -13.5446   -3.0904   56.7838 N.am    1  ZINC000052999724   -1.1100
     13 S13       -14.9272   -3.9954   56.8927 S.o2    1  ZINC000052999724    2.7200
     14 O14       -15.4878   -4.0301   55.5874 O.2     1  ZINC000052999724   -0.9500
     15 O15       -14.5845   -5.1655   57.6228 O.2     1  ZINC000052999724   -0.9400
     16 C16       -16.0614   -3.0963   57.8976 C.2     1  ZINC000052999724   -0.8000
     17 C17       -16.9542   -2.2131   57.4480 C.2     1  ZINC000052999724    0.0100
     18 C18       -17.7410   -1.6297   58.4261 C.2     1  ZINC000052999724   -0.1600
     19 C19       -17.4872   -2.0391   59.6700 C.2     1  ZINC000052999724   -0.1700
     20 S20       -16.1946   -3.2317   59.6461 S.3     1  ZINC000052999724    0.2100
     21 C21       -11.3703   -3.2796   57.8878 C.3     1  ZINC000052999724   -0.1500
     22 C22       -10.6041   -2.9434   59.1654 C.3     1  ZINC000052999724    0.1100
     23 S23        -9.9570    1.4329   61.3960 S.3     1  ZINC000052999724    0.2100
     24 C24        -9.9118    2.9913   60.7031 C.2     1  ZINC000052999724   -0.2400
     25 C25        -9.6907    2.9228   59.3851 C.2     1  ZINC000052999724   -0.1300
     26 H26       -11.3945    1.5165   56.8870 H       1  ZINC000052999724    0.0600
     27 H27       -10.4789    3.0355   56.7376 H       1  ZINC000052999724    0.0600
     28 H28       -10.2658    1.7455   55.5299 H       1  ZINC000052999724    0.0600
     29 H29        -9.2798    0.2795   57.2697 H       1  ZINC000052999724    0.0800
     30 H30        -8.0150    3.0550   57.1515 H       1  ZINC000052999724    0.0600
     31 H31        -7.1753    1.5497   57.5959 H       1  ZINC000052999724    0.0600
     32 H32        -7.8020    1.7649   55.9438 H       1  ZINC000052999724    0.0600
     33 H33       -12.5723   -1.2272   60.3032 H       1  ZINC000052999724    0.0800
     34 H34       -11.8995    0.2193   59.5081 H       1  ZINC000052999724    0.0900
     35 H35       -13.7827   -0.8371   58.2081 H       1  ZINC000052999724    0.0900
     36 H36       -12.2525   -0.7784   57.2997 H       1  ZINC000052999724    0.0800
     37 H37       -13.2888   -3.1867   58.8632 H       1  ZINC000052999724    0.0900
     38 H38       -13.2283   -2.7904   55.9174 H       1  ZINC000052999724    0.4200
     39 H39       -17.0553   -1.9713   56.4004 H       1  ZINC000052999724    0.1600
     40 H40       -18.5025   -0.8982   58.1994 H       1  ZINC000052999724    0.1500
     41 H41       -17.9995   -1.6939   60.5559 H       1  ZINC000052999724    0.1800
     42 H42       -11.3970   -4.3607   57.7518 H       1  ZINC000052999724    0.1000
     43 H43       -10.8718   -2.8175   57.0356 H       1  ZINC000052999724    0.0800
     44 H44        -9.5600   -3.2358   59.0529 H       1  ZINC000052999724    0.1000
     45 H45       -11.0461   -3.4761   60.0074 H       1  ZINC000052999724    0.0800
     46 H46       -10.0405    3.9106   61.2552 H       1  ZINC000052999724    0.1700
     47 H47        -9.6269    3.8024   58.7618 H       1  ZINC000052999724    0.1400
@<TRIPOS>BOND
     1     1     2    1
     2     1    26    1
     3     1    27    1
     4     1    28    1
     5     2     3    1
     6     2     4    1
     7     2    29    1
     8     3    30    1
     9     3    31    1
    10     3    32    1
    11     4    25    1
    12     4     5    2
    13     5     6    1
    14     5    23    1
    15     6     7    2
    16     6     8   am
    17     8    22    1
    18     8     9    1
    19     9    10    1
    20     9    33    1
    21     9    34    1
    22    10    11    1
    23    10    35    1
    24    10    36    1
    25    11    12    1
    26    11    21    1
    27    11    37    1
    28    12    13   am
    29    12    38    1
    30    13    14    2
    31    13    15    2
    32    13    16    1
    33    16    20    1
    34    16    17    2
    35    17    18    1
    36    17    39    1
    37    18    19    2
    38    18    40    1
    39    19    20    1
    40    19    41    1
    41    21    22    1
    42    21    42    1
    43    21    43    1
    44    22    44    1
    45    22    45    1
    46    23    24    1
    47    24    25    2
    48    24    46    1
    49    25    47    1
@<TRIPOS>SUBSTRUCTURE
     1 ZINC000052999724        1 TEMP              0 ****  ****    0 ROOT


##########                                Name:    ZINC000826324849
##########                DOCK_Rotatable_Bonds:                   4
##########                         Heavy_Atoms:                  27
##########                    Molecular_Weight:             395.374
##########                DOCK_Rotatable_Bonds:                   4
##########                       Formal_Charge:           0.0400001
##########                     HBond_Acceptors:                  13
##########                        HBond_Donors:                   1
##########                         Heavy_Atoms:                  27
##########                          Grid_Score:          -27.922485
##########                     Grid_vdw_energy:          -25.774622
##########                      Grid_es_energy:           -2.147863
##########           Internal_energy_repulsive:          104.819115

@<TRIPOS>MOLECULE
ZINC000826324849
 41 44 1 0 0
SMALL
USER_CHARGES


@<TRIPOS>ATOM
      1 C1        -16.7587   -0.2904   60.9537 C.3     1  ZINC000826324849   -0.0600
      2 C2        -15.9897   -1.4502   60.3752 C.2     1  ZINC000826324849    0.2000
      3 N3        -15.4903   -1.5305   59.1654 N.2     1  ZINC000826324849   -0.4600
      4 C4        -14.8952   -2.7348   59.0985 C.2     1  ZINC000826324849    0.1600
      5 C5        -14.1702   -3.3064   57.9076 C.3     1  ZINC000826324849    0.2200
      6 H6        -14.1456   -4.3938   57.9799 H       1  ZINC000826324849    0.1300
      7 C7        -14.8874   -2.8909   56.6181 C.3     1  ZINC000826324849    0.0600
      8 O8        -14.0947   -3.2774   55.4929 O.3     1  ZINC000826324849   -0.3600
      9 C9        -12.8160   -2.6413   55.4317 C.3     1  ZINC000826324849    0.0400
     10 C10       -11.9926   -3.0441   56.6604 C.3     1  ZINC000826324849    0.0800
     11 N11       -12.7961   -2.7815   57.8650 N.am    1  ZINC000826324849   -1.0100
     12 S12       -12.1730   -1.9193   59.1343 S.o2    1  ZINC000826324849    2.7100
     13 O13       -13.2425   -1.7220   60.0488 O.2     1  ZINC000826324849   -0.9300
     14 O14       -10.9530   -2.5549   59.4904 O.2     1  ZINC000826324849   -0.9300
     15 C15       -11.7426   -0.3248   58.5203 C.ar    1  ZINC000826324849   -0.5800
     16 C16       -12.4958    0.2574   57.5211 C.ar    1  ZINC000826324849   -0.0400
     17 C17       -12.1601    1.5092   57.0372 C.ar    1  ZINC000826324849   -0.0800
     18 C18       -11.0686    2.1850   57.5503 C.ar    1  ZINC000826324849   -0.1100
     19 C19       -10.3063    1.6117   58.5517 C.ar    1  ZINC000826324849    0.1300
     20 F20        -9.2399    2.2723   59.0533 F       1  ZINC000826324849   -0.1100
     21 C21       -10.6450    0.3523   59.0467 C.ar    1  ZINC000826324849    0.0500
     22 C22        -9.8317   -0.2691   60.1219 C.2     1  ZINC000826324849    0.1800
     23 N23        -8.6646   -0.8654   59.9813 N.2     1  ZINC000826324849   -0.2600
     24 N24        -8.2860   -1.2702   61.1449 N.pl3   1  ZINC000826324849   -0.2200
     25 N25        -9.1759   -0.9491   62.0178 N.2     1  ZINC000826324849   -0.0200
     26 N26       -10.1386   -0.3277   61.4255 N.2     1  ZINC000826324849   -0.2600
     27 N27       -15.0600   -3.3147   60.2497 N.2     1  ZINC000826324849   -0.3800
     28 O28       -15.6812   -2.5911   60.9993 O.3     1  ZINC000826324849    0.0900
     29 H29       -17.0382   -0.5168   61.9827 H       1  ZINC000826324849    0.1000
     30 H30       -16.1361    0.6040   60.9347 H       1  ZINC000826324849    0.1100
     31 H31       -17.6582   -0.1198   60.3622 H       1  ZINC000826324849    0.1100
     32 H32       -15.8581   -3.3841   56.5663 H       1  ZINC000826324849    0.1200
     33 H33       -15.0268   -1.8099   56.6111 H       1  ZINC000826324849    0.0600
     34 H34       -12.2962   -2.9550   54.5263 H       1  ZINC000826324849    0.1200
     35 H35       -12.9477   -1.5593   55.4205 H       1  ZINC000826324849    0.0600
     36 H36       -11.7481   -4.1050   56.6068 H       1  ZINC000826324849    0.0900
     37 H37       -11.0750   -2.4568   56.6960 H       1  ZINC000826324849    0.1100
     38 H38       -13.3493   -0.2657   57.1157 H       1  ZINC000826324849    0.1400
     39 H39       -12.7529    1.9604   56.2552 H       1  ZINC000826324849    0.1500
     40 H40       -10.8106    3.1617   57.1682 H       1  ZINC000826324849    0.1500
     41 H41        -7.4602   -1.7429   61.3332 H       1  ZINC000826324849    0.4800
@<TRIPOS>BOND
     1     1     2    1
     2     1    29    1
     3     1    30    1
     4     1    31    1
     5     2    28    1
     6     2     3    2
     7     3     4    1
     8     4     5    1
     9     4    27    2
    10     5     6    1
    11     5    11    1
    12     5     7    1
    13     7     8    1
    14     7    32    1
    15     7    33    1
    16     8     9    1
    17     9    10    1
    18     9    34    1
    19     9    35    1
    20    10    11    1
    21    10    36    1
    22    10    37    1
    23    11    12   am
    24    12    13    2
    25    12    14    2
    26    12    15    1
    27    15    21   ar
    28    15    16   ar
    29    16    17   ar
    30    16    38    1
    31    17    18   ar
    32    17    39    1
    33    18    19   ar
    34    18    40    1
    35    19    20    1
    36    19    21   ar
    37    21    22    1
    38    22    26    1
    39    22    23    2
    40    23    24    1
    41    24    25    1
    42    24    41    1
    43    25    26    2
    44    27    28    1
@<TRIPOS>SUBSTRUCTURE
     1 ZINC000826324849        1 TEMP              0 ****  ****    0 ROOT


##########                                Name:    ZINC001271977984
##########                DOCK_Rotatable_Bonds:                   7
##########                         Heavy_Atoms:                  24
##########                    Molecular_Weight:             328.371
##########                DOCK_Rotatable_Bonds:                   7
##########                       Formal_Charge:           0.0200001
##########                     HBond_Acceptors:                   7
##########                        HBond_Donors:                   0
##########                         Heavy_Atoms:                  24
##########                          Grid_Score:          -27.911655
##########                     Grid_vdw_energy:          -26.635233
##########                      Grid_es_energy:           -1.276423
##########           Internal_energy_repulsive:           17.444412

@<TRIPOS>MOLECULE
ZINC001271977984
 44 46 1 0 0
SMALL
USER_CHARGES


@<TRIPOS>ATOM
      1 C1        -13.6821   -0.9057   52.6189 C.3     1  ZINC001271977984   -0.1800
      2 C2        -12.3987   -1.6454   53.0019 C.3     1  ZINC001271977984    0.1700
      3 H3        -12.3350   -2.5772   52.4398 H       1  ZINC001271977984    0.1100
      4 C4        -11.2062   -0.7821   52.6801 C.2     1  ZINC001271977984    0.2700
      5 N5        -11.2584    0.4903   52.4239 N.2     1  ZINC001271977984   -0.4700
      6 C6         -9.9979    0.9406   52.1797 C.ar    1  ZINC001271977984    0.0200
      7 C7         -9.4633    2.1887   51.8576 C.ar    1  ZINC001271977984   -0.0600
      8 C8         -8.1059    2.3218   51.6669 C.ar    1  ZINC001271977984   -0.1200
      9 C9         -7.2682    1.2238   51.7929 C.ar    1  ZINC001271977984   -0.0900
     10 C10        -7.7828   -0.0161   52.1104 C.ar    1  ZINC001271977984   -0.0900
     11 C11        -9.1467   -0.1682   52.3063 C.ar    1  ZINC001271977984    0.0100
     12 O12        -9.9375   -1.2169   52.6231 O.3     1  ZINC001271977984   -0.2100
     13 N13       -12.4150   -1.9416   54.4407 N.3     1  ZINC001271977984   -0.5300
     14 C14       -11.5406   -3.0796   54.7538 C.3     1  ZINC001271977984    0.0000
     15 C15       -12.0404   -0.7581   55.2261 C.3     1  ZINC001271977984    0.0400
     16 C16       -12.8386   -0.7386   56.5312 C.3     1  ZINC001271977984    0.1200
     17 N17       -11.9507   -1.0599   57.6514 N.am    1  ZINC001271977984   -0.6000
     18 C18       -12.1485   -2.2967   58.4114 C.3     1  ZINC001271977984    0.0800
     19 C19       -10.9521   -0.2177   57.9828 C.2     1  ZINC001271977984    0.6000
     20 O20       -10.7880    0.8089   57.3520 O.2     1  ZINC001271977984   -0.5300
     21 C21       -10.0587   -0.5410   59.1100 C.2     1  ZINC001271977984   -0.0800
     22 C22        -9.8246    0.2338   60.2041 C.2     1  ZINC001271977984    0.0200
     23 O23        -8.9535   -0.4338   60.9774 O.3     1  ZINC001271977984   -0.2000
     24 C24        -8.6587   -1.5931   60.3722 C.2     1  ZINC001271977984    0.1800
     25 N25        -9.3175   -1.6728   59.2551 N.2     1  ZINC001271977984   -0.4600
     26 H26       -14.5446   -1.5301   52.8515 H       1  ZINC001271977984    0.0800
     27 H27       -13.7458    0.0260   53.1809 H       1  ZINC001271977984    0.0800
     28 H28       -13.6701   -0.6860   51.5513 H       1  ZINC001271977984    0.0700
     29 H29       -10.1115    3.0468   51.7581 H       1  ZINC001271977984    0.1400
     30 H30        -7.6912    3.2873   51.4173 H       1  ZINC001271977984    0.1400
     31 H31        -6.2052    1.3402   51.6410 H       1  ZINC001271977984    0.1400
     32 H32        -7.1242   -0.8667   52.2069 H       1  ZINC001271977984    0.1400
     33 H33       -10.5183   -2.8449   54.4569 H       1  ZINC001271977984    0.0300
     34 H34       -11.5714   -3.2774   55.8252 H       1  ZINC001271977984    0.0700
     35 H35       -11.8831   -3.9610   54.2116 H       1  ZINC001271977984    0.1100
     36 H36       -10.9747   -0.7946   55.4523 H       1  ZINC001271977984    0.0500
     37 H37       -12.2594    0.1428   54.6527 H       1  ZINC001271977984    0.0800
     38 H38       -13.2674    0.2524   56.6800 H       1  ZINC001271977984    0.0900
     39 H39       -13.6389   -1.4767   56.4787 H       1  ZINC001271977984    0.0900
     40 H40       -11.4962   -3.0749   58.0150 H       1  ZINC001271977984    0.0600
     41 H41       -11.9088   -2.1209   59.4601 H       1  ZINC001271977984    0.0900
     42 H42       -13.1876   -2.6143   58.3244 H       1  ZINC001271977984    0.0700
     43 H43       -10.2570    1.2016   60.4108 H       1  ZINC001271977984    0.2300
     44 H44        -7.9829   -2.3438   60.7545 H       1  ZINC001271977984    0.2600
@<TRIPOS>BOND
     1     1     2    1
     2     1    26    1
     3     1    27    1
     4     1    28    1
     5     2     3    1
     6     2     4    1
     7     2    13    1
     8     4    12    1
     9     4     5    2
    10     5     6    1
    11     6    11   ar
    12     6     7   ar
    13     7     8   ar
    14     7    29    1
    15     8     9   ar
    16     8    30    1
    17     9    10   ar
    18     9    31    1
    19    10    11   ar
    20    10    32    1
    21    11    12    1
    22    13    14    1
    23    13    15    1
    24    14    33    1
    25    14    34    1
    26    14    35    1
    27    15    16    1
    28    15    36    1
    29    15    37    1
    30    16    17    1
    31    16    38    1
    32    16    39    1
    33    17    18    1
    34    17    19   am
    35    18    40    1
    36    18    41    1
    37    18    42    1
    38    19    20    2
    39    19    21    1
    40    21    25    1
    41    21    22    2
    42    22    23    1
    43    22    43    1
    44    23    24    1
    45    24    25    2
    46    24    44    1
@<TRIPOS>SUBSTRUCTURE
     1 ZINC001271977984        1 TEMP              0 ****  ****    0 ROOT


##########                                Name:    ZINC001110536231
##########                DOCK_Rotatable_Bonds:                   8
##########                         Heavy_Atoms:                  24
##########                    Molecular_Weight:             329.442
##########                DOCK_Rotatable_Bonds:                   8
##########                       Formal_Charge:          -0.0400001
##########                     HBond_Acceptors:                   5
##########                        HBond_Donors:                   1
##########                         Heavy_Atoms:                  24
##########                          Grid_Score:          -27.864809
##########                     Grid_vdw_energy:          -27.421602
##########                      Grid_es_energy:           -0.443206
##########           Internal_energy_repulsive:           23.082779

@<TRIPOS>MOLECULE
ZINC001110536231
 51 53 1 0 0
SMALL
USER_CHARGES


@<TRIPOS>ATOM
      1 C1         -8.6056   -0.4166   62.0253 C.3     1  ZINC001110536231   -0.1300
      2 C2         -8.6871   -1.0809   60.6494 C.3     1  ZINC001110536231   -0.1000
      3 C3        -10.1167   -1.0749   60.1725 C.2     1  ZINC001110536231   -0.0200
      4 C4        -10.6056    0.0295   59.2711 C.3     1  ZINC001110536231   -0.1300
      5 C5        -10.9468   -2.0441   60.5471 C.2     1  ZINC001110536231   -0.2400
      6 C6        -12.3422   -2.0380   60.0815 C.2     1  ZINC001110536231    0.5400
      7 O7        -13.2003   -1.4811   60.7391 O.2     1  ZINC001110536231   -0.5300
      8 N8        -12.6696   -2.6497   58.9260 N.am    1  ZINC001110536231   -0.7300
      9 C9        -14.0590   -2.6421   58.4614 C.3     1  ZINC001110536231    0.1100
     10 H10       -14.7454   -2.6230   59.3079 H       1  ZINC001110536231    0.1000
     11 C11       -14.3392   -3.8696   57.5602 C.3     1  ZINC001110536231   -0.1600
     12 C12       -14.7266   -3.2350   56.1905 C.3     1  ZINC001110536231    0.0500
     13 H13       -14.6195   -3.8862   55.3229 H       1  ZINC001110536231    0.1200
     14 C14       -16.1484   -2.6356   56.4104 C.3     1  ZINC001110536231   -0.1200
     15 C15       -15.8873   -1.4080   57.3171 C.3     1  ZINC001110536231   -0.1100
     16 C16       -14.3158   -1.4275   57.5192 C.3     1  ZINC001110536231    0.0400
     17 H17       -13.8677   -0.4794   57.8165 H       1  ZINC001110536231    0.1200
     18 N18       -13.8684   -1.9968   56.1933 N.3     1  ZINC001110536231   -0.4900
     19 C19       -12.4380   -2.3305   56.2195 C.3     1  ZINC001110536231    0.0600
     20 C20       -11.8283   -2.0333   54.8737 C.ar    1  ZINC001110536231    0.0100
     21 C21       -11.9628   -2.9270   53.8205 C.ar    1  ZINC001110536231   -0.2100
     22 C22       -11.3921   -2.6238   52.6002 C.ar    1  ZINC001110536231    0.1400
     23 N23       -10.7241   -1.4994   52.4267 N.ar    1  ZINC001110536231   -0.5400
     24 C24       -10.5744   -0.6229   53.4060 C.ar    1  ZINC001110536231    0.3200
     25 O25        -9.8799    0.5212   53.1834 O.3     1  ZINC001110536231   -0.3100
     26 C26       -10.5703    1.5800   52.5169 C.3     1  ZINC001110536231    0.0400
     27 C27       -11.1260   -0.8600   54.6583 C.ar    1  ZINC001110536231   -0.1700
     28 H28        -7.5717   -0.4209   62.3701 H       1  ZINC001110536231    0.0500
     29 H29        -8.9606    0.6115   61.9539 H       1  ZINC001110536231    0.0700
     30 H30        -9.2267   -0.9672   62.7319 H       1  ZINC001110536231    0.0400
     31 H31        -8.0661   -0.5303   59.9427 H       1  ZINC001110536231    0.0900
     32 H32        -8.3322   -2.1090   60.7207 H       1  ZINC001110536231    0.0600
     33 H33       -10.4511   -0.2557   58.2304 H       1  ZINC001110536231    0.0800
     34 H34       -11.6678    0.1991   59.4475 H       1  ZINC001110536231    0.0700
     35 H35       -10.0515    0.9438   59.4833 H       1  ZINC001110536231    0.0700
     36 H36       -10.5964   -2.8355   61.1931 H       1  ZINC001110536231    0.1200
     37 H37       -11.9854   -3.0949   58.4020 H       1  ZINC001110536231    0.4000
     38 H38       -13.4443   -4.4836   57.4591 H       1  ZINC001110536231    0.0700
     39 H39       -15.1662   -4.4573   57.9585 H       1  ZINC001110536231    0.0800
     40 H40       -16.5852   -2.3256   55.4611 H       1  ZINC001110536231    0.0700
     41 H41       -16.7941   -3.3546   56.9145 H       1  ZINC001110536231    0.0700
     42 H42       -16.1948   -0.4895   56.8173 H       1  ZINC001110536231    0.0800
     43 H43       -16.4037   -1.5185   58.2707 H       1  ZINC001110536231    0.0700
     44 H44       -11.9397   -1.7342   56.9838 H       1  ZINC001110536231    0.0900
     45 H45       -12.3159   -3.3893   56.4477 H       1  ZINC001110536231    0.0700
     46 H46       -12.5077   -3.8499   53.9540 H       1  ZINC001110536231    0.1300
     47 H47       -11.4937   -3.3160   51.7774 H       1  ZINC001110536231    0.1600
     48 H48        -9.9024    2.4338   52.4025 H       1  ZINC001110536231    0.1000
     49 H49       -10.8962    1.2393   51.5342 H       1  ZINC001110536231    0.0600
     50 H50       -11.4390    1.8746   53.1058 H       1  ZINC001110536231    0.0600
     51 H51       -11.0022   -0.1421   55.4556 H       1  ZINC001110536231    0.1400
@<TRIPOS>BOND
     1     1     2    1
     2     1    28    1
     3     1    29    1
     4     1    30    1
     5     2     3    1
     6     2    31    1
     7     2    32    1
     8     3     4    1
     9     3     5    2
    10     4    33    1
    11     4    34    1
    12     4    35    1
    13     5     6    1
    14     5    36    1
    15     6     7    2
    16     6     8   am
    17     8     9    1
    18     8    37    1
    19     9    10    1
    20     9    16    1
    21     9    11    1
    22    11    12    1
    23    11    38    1
    24    11    39    1
    25    12    13    1
    26    12    18    1
    27    12    14    1
    28    14    15    1
    29    14    40    1
    30    14    41    1
    31    15    16    1
    32    15    42    1
    33    15    43    1
    34    16    17    1
    35    16    18    1
    36    18    19    1
    37    19    20    1
    38    19    44    1
    39    19    45    1
    40    20    27   ar
    41    20    21   ar
    42    21    22   ar
    43    21    46    1
    44    22    23   ar
    45    22    47    1
    46    23    24   ar
    47    24    25    1
    48    24    27   ar
    49    25    26    1
    50    26    48    1
    51    26    49    1
    52    26    50    1
    53    27    51    1
@<TRIPOS>SUBSTRUCTURE
     1 ZINC001110536231        1 TEMP              0 ****  ****    0 ROOT


##########                                Name:    ZINC000010935976
##########                DOCK_Rotatable_Bonds:                   3
##########                         Heavy_Atoms:                  26
##########                    Molecular_Weight:             391.558
##########                DOCK_Rotatable_Bonds:                   3
##########                       Formal_Charge:         -0.00999979
##########                     HBond_Acceptors:                   7
##########                        HBond_Donors:                   1
##########                         Heavy_Atoms:                  26
##########                          Grid_Score:          -27.864065
##########                     Grid_vdw_energy:          -25.084282
##########                      Grid_es_energy:           -2.779783
##########           Internal_energy_repulsive:          124.694954

@<TRIPOS>MOLECULE
ZINC000010935976
 51 54 1 0 0
SMALL
USER_CHARGES


@<TRIPOS>ATOM
      1 C1        -16.5117    1.2150   63.6183 C.3     1  ZINC000010935976   -0.0800
      2 C2        -15.0109    1.3257   63.6986 C.2     1  ZINC000010935976   -0.2100
      3 C3        -14.1888    1.0223   62.7132 C.2     1  ZINC000010935976   -0.0400
      4 C4        -14.6733    0.5233   61.3762 C.3     1  ZINC000010935976   -0.1000
      5 C5        -12.7815    1.2064   63.0155 C.2     1  ZINC000010935976   -0.2300
      6 C6        -12.5812    1.6759   64.3118 C.2     1  ZINC000010935976    0.0900
      7 N7        -11.3279    1.9008   64.7537 N.2     1  ZINC000010935976   -0.4900
      8 C8        -10.2822    1.6886   63.9914 C.2     1  ZINC000010935976    0.3400
      9 S9         -8.6718    2.0033   64.6334 S.3     1  ZINC000010935976    0.0500
     10 C10        -8.7903    1.1369   66.2181 C.3     1  ZINC000010935976   -0.1000
     11 H11        -9.6137    0.4234   66.1847 H       1  ZINC000010935976    0.1400
     12 C12        -9.0320    2.1489   67.3407 C.3     1  ZINC000010935976   -0.1000
     13 C13        -8.3018    3.4494   67.0586 C.3     1  ZINC000010935976   -0.1300
     14 C14        -6.7897    3.3238   67.0962 C.3     1  ZINC000010935976   -0.1400
     15 C15        -6.2863    2.4520   65.9442 C.3     1  ZINC000010935976    0.0700
     16 N16        -6.3259    1.0429   66.3677 N.am    1  ZINC000010935976   -0.7200
     17 C17        -7.4940    0.4053   66.4961 C.2     1  ZINC000010935976    0.5400
     18 O18        -7.5133   -0.7573   66.8409 O.2     1  ZINC000010935976   -0.5200
     19 N19       -10.4114    1.2292   62.7126 N.am    1  ZINC000010935976   -0.5100
     20 C20        -9.2174    1.0046   61.8941 C.3     1  ZINC000010935976    0.1200
     21 C21        -8.9503   -0.5083   61.7529 C.3     1  ZINC000010935976   -0.1300
     22 C22        -9.6142   -0.8870   60.4058 C.3     1  ZINC000010935976   -0.1300
     23 C23        -9.3067    0.3426   59.5155 C.3     1  ZINC000010935976   -0.1100
     24 C24        -9.4440    1.5456   60.4715 C.3     1  ZINC000010935976   -0.1200
     25 C25       -11.6322    0.9805   62.2002 C.2     1  ZINC000010935976    0.5600
     26 O26       -11.7534    0.5704   61.0585 O.2     1  ZINC000010935976   -0.5000
     27 S27       -14.1343    1.8816   65.1116 S.3     1  ZINC000010935976    0.2100
     28 H28       -16.9504    1.5309   64.5648 H       1  ZINC000010935976    0.0700
     29 H29       -16.8807    1.8535   62.8157 H       1  ZINC000010935976    0.0800
     30 H30       -16.7894    0.1805   63.4165 H       1  ZINC000010935976    0.0800
     31 H31       -14.8433    1.3706   60.7120 H       1  ZINC000010935976    0.0700
     32 H32       -13.9220   -0.1352   60.9402 H       1  ZINC000010935976    0.0800
     33 H33       -15.6050   -0.0265   61.5096 H       1  ZINC000010935976    0.0700
     34 H34       -10.1008    2.3475   67.4209 H       1  ZINC000010935976    0.0900
     35 H35        -8.6734    1.7328   68.2823 H       1  ZINC000010935976    0.0900
     36 H36        -8.5969    3.8071   66.0723 H       1  ZINC000010935976    0.0700
     37 H37        -8.6080    4.1881   67.7993 H       1  ZINC000010935976    0.0800
     38 H38        -6.3455    4.3158   67.0154 H       1  ZINC000010935976    0.0800
     39 H39        -6.4908    2.8741   68.0430 H       1  ZINC000010935976    0.0700
     40 H40        -6.9273    2.5905   65.0735 H       1  ZINC000010935976    0.1100
     41 H41        -5.2622    2.7305   65.6953 H       1  ZINC000010935976    0.0900
     42 H42        -5.4983    0.5719   66.5528 H       1  ZINC000010935976    0.4000
     43 H43        -8.3563    1.4957   62.3476 H       1  ZINC000010935976    0.1000
     44 H44        -7.8787   -0.7049   61.7187 H       1  ZINC000010935976    0.0800
     45 H45        -9.4136   -1.0556   62.5738 H       1  ZINC000010935976    0.0700
     46 H46        -9.1603   -1.7872   59.9912 H       1  ZINC000010935976    0.0600
     47 H47       -10.6895   -1.0163   60.5279 H       1  ZINC000010935976    0.1100
     48 H48        -8.2928    0.2834   59.1201 H       1  ZINC000010935976    0.0600
     49 H49       -10.0302    0.4162   58.7036 H       1  ZINC000010935976    0.0700
     50 H50       -10.4424    1.9752   60.3902 H       1  ZINC000010935976    0.0800
     51 H51        -8.6925    2.2987   60.2344 H       1  ZINC000010935976    0.0700
@<TRIPOS>BOND
     1     1     2    1
     2     1    28    1
     3     1    29    1
     4     1    30    1
     5     2    27    1
     6     2     3    2
     7     3     4    1
     8     3     5    1
     9     4    31    1
    10     4    32    1
    11     4    33    1
    12     5    25    1
    13     5     6    2
    14     6     7    1
    15     6    27    1
    16     7     8    2
    17     8     9    1
    18     8    19    1
    19     9    10    1
    20    10    11    1
    21    10    17    1
    22    10    12    1
    23    12    13    1
    24    12    34    1
    25    12    35    1
    26    13    14    1
    27    13    36    1
    28    13    37    1
    29    14    15    1
    30    14    38    1
    31    14    39    1
    32    15    16    1
    33    15    40    1
    34    15    41    1
    35    16    17   am
    36    16    42    1
    37    17    18    2
    38    19    20    1
    39    19    25   am
    40    20    24    1
    41    20    21    1
    42    20    43    1
    43    21    22    1
    44    21    44    1
    45    21    45    1
    46    22    23    1
    47    22    46    1
    48    22    47    1
    49    23    24    1
    50    23    48    1
    51    23    49    1
    52    24    50    1
    53    24    51    1
    54    25    26    2
@<TRIPOS>SUBSTRUCTURE
     1 ZINC000010935976        1 TEMP              0 ****  ****    0 ROOT


##########                                Name:    ZINC000937331732
##########                DOCK_Rotatable_Bonds:                   6
##########                         Heavy_Atoms:                  24
##########                    Molecular_Weight:              333.35
##########                DOCK_Rotatable_Bonds:                   6
##########                       Formal_Charge:          -0.0299999
##########                     HBond_Acceptors:                  10
##########                        HBond_Donors:                   1
##########                         Heavy_Atoms:                  24
##########                          Grid_Score:          -27.863949
##########                     Grid_vdw_energy:          -25.978676
##########                      Grid_es_energy:           -1.885274
##########           Internal_energy_repulsive:           30.056643

@<TRIPOS>MOLECULE
ZINC000937331732
 43 45 1 0 0
SMALL
USER_CHARGES


@<TRIPOS>ATOM
      1 C1        -13.7442   -1.7965   61.4084 C.3     1  ZINC000937331732    0.0600
      2 N2        -12.6898   -0.7841   61.3095 N.am    1  ZINC000937331732   -0.6100
      3 C3        -12.7018    0.2838   62.1316 C.2     1  ZINC000937331732    0.5000
      4 O4        -13.5863    0.4075   62.9521 O.2     1  ZINC000937331732   -0.5200
      5 C5        -11.6163    1.3243   62.0313 C.3     1  ZINC000937331732    0.1500
      6 N6        -10.4117    0.8403   62.7101 N.am    1  ZINC000937331732   -0.4400
      7 N7         -9.3151    0.2090   62.1071 N.2     1  ZINC000937331732   -0.2800
      8 C8         -8.4525   -0.0693   63.0306 C.2     1  ZINC000937331732    0.2600
      9 N9         -8.9432    0.3600   64.2396 N.am    1  ZINC000937331732   -0.5600
     10 C10        -8.2682    0.2318   65.5335 C.3     1  ZINC000937331732    0.1000
     11 C11       -10.1494    0.9248   64.0312 C.2     1  ZINC000937331732    0.6500
     12 O12       -10.8731    1.4142   64.8802 O.2     1  ZINC000937331732   -0.5500
     13 C13       -11.6224   -0.9326   60.3171 C.3     1  ZINC000937331732    0.1300
     14 H14       -10.9548   -0.0712   60.3390 H       1  ZINC000937331732    0.1200
     15 C15       -10.8314   -2.2463   60.5541 C.3     1  ZINC000937331732   -0.1500
     16 C16       -10.2952   -2.5472   59.1322 C.3     1  ZINC000937331732    0.1000
     17 N17       -11.3826   -2.1384   58.2246 N.am    1  ZINC000937331732   -0.6000
     18 C18       -11.5826   -2.6075   56.9770 C.2     1  ZINC000937331732    0.6200
     19 O19       -10.8296   -3.4422   56.5133 O.2     1  ZINC000937331732   -0.5400
     20 C20       -12.7141   -2.1087   56.1745 C.2     1  ZINC000937331732    0.1400
     21 N21       -13.5976   -1.2129   56.5608 N.2     1  ZINC000937331732   -0.4400
     22 C22       -14.4703   -1.0097   55.5765 C.2     1  ZINC000937331732   -0.0300
     23 C23       -14.1281   -1.8032   54.5320 C.2     1  ZINC000937331732   -0.0200
     24 N24       -13.0223   -2.4926   54.8996 N.pl3   1  ZINC000937331732   -0.5200
     25 C25       -12.2133   -1.1299   58.9052 C.3     1  ZINC000937331732    0.1000
     26 H26       -14.5692   -1.5273   60.7488 H       1  ZINC000937331732    0.0700
     27 H27       -13.3449   -2.7669   61.1134 H       1  ZINC000937331732    0.0800
     28 H28       -14.1028   -1.8484   62.4364 H       1  ZINC000937331732    0.0800
     29 H29       -11.3906    1.5140   60.9819 H       1  ZINC000937331732    0.1300
     30 H30       -11.9531    2.2474   62.5031 H       1  ZINC000937331732    0.1300
     31 H31        -7.5024   -0.5591   62.8762 H       1  ZINC000937331732    0.2300
     32 H32        -7.3062   -0.2613   65.3942 H       1  ZINC000937331732    0.1000
     33 H33        -8.1104    1.2222   65.9606 H       1  ZINC000937331732    0.0800
     34 H34        -8.8858   -0.3608   66.2084 H       1  ZINC000937331732    0.0800
     35 H35       -10.0120   -2.0878   61.2553 H       1  ZINC000937331732    0.0900
     36 H36       -11.4908   -3.0424   60.8997 H       1  ZINC000937331732    0.0800
     37 H37        -9.3962   -1.9635   58.9344 H       1  ZINC000937331732    0.0800
     38 H38       -10.0892   -3.6118   59.0220 H       1  ZINC000937331732    0.1100
     39 H39       -15.3081   -0.3287   55.6052 H       1  ZINC000937331732    0.1800
     40 H40       -14.6396   -1.8702   53.5832 H       1  ZINC000937331732    0.1900
     41 H41       -12.5424   -3.1414   54.3614 H       1  ZINC000937331732    0.4300
     42 H42       -13.2404   -1.4864   58.9821 H       1  ZINC000937331732    0.0800
     43 H43       -12.1848   -0.1914   58.3516 H       1  ZINC000937331732    0.0800
@<TRIPOS>BOND
     1     1     2    1
     2     1    26    1
     3     1    27    1
     4     1    28    1
     5     2     3   am
     6     2    13    1
     7     3     4    2
     8     3     5    1
     9     5     6    1
    10     5    29    1
    11     5    30    1
    12     6    11   am
    13     6     7    1
    14     7     8    2
    15     8     9    1
    16     8    31    1
    17     9    10    1
    18     9    11   am
    19    10    32    1
    20    10    33    1
    21    10    34    1
    22    11    12    2
    23    13    14    1
    24    13    25    1
    25    13    15    1
    26    15    16    1
    27    15    35    1
    28    15    36    1
    29    16    17    1
    30    16    37    1
    31    16    38    1
    32    17    18   am
    33    17    25    1
    34    18    19    2
    35    18    20    1
    36    20    24    1
    37    20    21    2
    38    21    22    1
    39    22    23    2
    40    22    39    1
    41    23    24    1
    42    23    40    1
    43    24    41    1
    44    25    42    1
    45    25    43    1
@<TRIPOS>SUBSTRUCTURE
     1 ZINC000937331732        1 TEMP              0 ****  ****    0 ROOT


##########                                Name:    ZINC000151850193
##########                DOCK_Rotatable_Bonds:                  11
##########                         Heavy_Atoms:                  23
##########                    Molecular_Weight:             328.452
##########                DOCK_Rotatable_Bonds:                  11
##########                       Formal_Charge:            0.039999
##########                     HBond_Acceptors:                   6
##########                        HBond_Donors:                   2
##########                         Heavy_Atoms:                  23
##########                          Grid_Score:          -27.863560
##########                     Grid_vdw_energy:          -27.151823
##########                      Grid_es_energy:           -0.711736
##########           Internal_energy_repulsive:           41.921341

@<TRIPOS>MOLECULE
ZINC000151850193
 55 55 1 0 0
SMALL
USER_CHARGES


@<TRIPOS>ATOM
      1 C1        -12.0734   -2.7399   54.1986 C.3     1  ZINC000151850193   -0.1500
      2 C2        -13.1185   -1.9576   54.9966 C.3     1  ZINC000151850193   -0.1000
      3 C3        -13.5111   -2.7551   56.2420 C.3     1  ZINC000151850193   -0.0800
      4 C4        -12.3036   -3.1844   57.0777 C.3     1  ZINC000151850193   -0.1000
      5 C5        -11.5843   -1.9432   57.6098 C.3     1  ZINC000151850193   -0.1500
      6 C6        -14.6308   -2.0982   57.0663 C.3     1  ZINC000151850193    0.1400
      7 H7        -14.6899   -1.0172   56.9395 H       1  ZINC000151850193    0.1000
      8 N8        -14.6412   -2.5074   58.4730 N.am    1  ZINC000151850193   -0.7000
      9 C9        -15.6739   -2.1625   59.2676 C.2     1  ZINC000151850193    0.5200
     10 O10       -16.5937   -1.5122   58.8183 O.2     1  ZINC000151850193   -0.5300
     11 C11       -15.6854   -2.5849   60.7141 C.3     1  ZINC000151850193   -0.1500
     12 C12       -14.9862   -1.5203   61.5618 C.3     1  ZINC000151850193    0.1500
     13 N13       -13.5364   -1.7218   61.5002 N.am    1  ZINC000151850193   -0.7100
     14 C14       -12.7185   -0.6716   61.2885 C.2     1  ZINC000151850193    0.6500
     15 O15       -13.1837    0.4419   61.1471 O.2     1  ZINC000151850193   -0.5600
     16 O16       -11.3860   -0.8565   61.2335 O.3     1  ZINC000151850193   -0.3700
     17 C17       -10.5496    0.2299   61.7112 C.3     1  ZINC000151850193    0.1400
     18 C18       -11.0954    0.7457   63.0443 C.3     1  ZINC000151850193   -0.1800
     19 C19        -9.1191   -0.2762   61.9075 C.3     1  ZINC000151850193   -0.1400
     20 C20       -10.5527    1.3651   60.6853 C.3     1  ZINC000151850193   -0.1800
     21 C21       -15.6256   -2.8765   56.1891 C.3     1  ZINC000151850193   -0.1700
     22 C22       -14.4998   -3.8976   55.9556 C.3     1  ZINC000151850193    0.0700
     23 H23       -14.4528   -4.2693   54.9319 H       1  ZINC000151850193    0.0800
     24 O24       -14.4652   -4.9441   56.9280 O.3     1  ZINC000151850193   -0.3700
     25 C25       -14.5447   -6.2578   56.3712 C.3     1  ZINC000151850193    0.0300
     26 H26       -11.1791   -2.8760   54.8067 H       1  ZINC000151850193    0.0600
     27 H27       -12.4791   -3.7142   53.9259 H       1  ZINC000151850193    0.0600
     28 H28       -11.8177   -2.1868   53.2948 H       1  ZINC000151850193    0.0600
     29 H29       -12.7015   -0.9964   55.2972 H       1  ZINC000151850193    0.0700
     30 H30       -14.0004   -1.7935   54.3774 H       1  ZINC000151850193    0.0700
     31 H31       -12.6399   -3.7962   57.9147 H       1  ZINC000151850193    0.0700
     32 H32       -11.6193   -3.7626   56.4568 H       1  ZINC000151850193    0.0700
     33 H33       -11.1845   -1.3687   56.7741 H       1  ZINC000151850193    0.0500
     34 H34       -12.2882   -1.3277   58.1701 H       1  ZINC000151850193    0.0500
     35 H35       -10.7680   -2.2489   58.2641 H       1  ZINC000151850193    0.0500
     36 H36       -13.9050   -3.0265   58.8325 H       1  ZINC000151850193    0.4100
     37 H37       -16.7158   -2.6986   61.0511 H       1  ZINC000151850193    0.1000
     38 H38       -15.1618   -3.5350   60.8194 H       1  ZINC000151850193    0.1000
     39 H39       -15.2321   -0.5304   61.1773 H       1  ZINC000151850193    0.0800
     40 H40       -15.3207   -1.6019   62.5960 H       1  ZINC000151850193    0.0800
     41 H41       -13.1651   -2.6109   61.6118 H       1  ZINC000151850193    0.4100
     42 H42       -11.0932   -0.0630   63.7751 H       1  ZINC000151850193    0.0600
     43 H43       -10.4674    1.5613   63.4028 H       1  ZINC000151850193    0.0700
     44 H44       -12.1145    1.1062   62.9044 H       1  ZINC000151850193    0.0900
     45 H45        -8.7302   -0.6436   60.9578 H       1  ZINC000151850193    0.0700
     46 H46        -8.4911    0.5393   62.2660 H       1  ZINC000151850193    0.0800
     47 H47        -9.1168   -1.0849   62.6383 H       1  ZINC000151850193    0.0700
     48 H48       -11.5717    1.7256   60.5455 H       1  ZINC000151850193    0.0900
     49 H49        -9.9247    2.1807   61.0440 H       1  ZINC000151850193    0.0700
     50 H50       -10.1638    0.9976   59.7356 H       1  ZINC000151850193    0.0600
     51 H51       -16.4732   -3.2803   56.7430 H       1  ZINC000151850193    0.0800
     52 H52       -15.9240   -2.3417   55.2875 H       1  ZINC000151850193    0.1000
     53 H53       -15.4787   -6.3624   55.8191 H       1  ZINC000151850193    0.0400
     54 H54       -13.7039   -6.4180   55.6963 H       1  ZINC000151850193    0.0400
     55 H55       -14.5123   -6.9950   57.1734 H       1  ZINC000151850193    0.0900
@<TRIPOS>BOND
     1     1     2    1
     2     1    26    1
     3     1    27    1
     4     1    28    1
     5     2     3    1
     6     2    29    1
     7     2    30    1
     8     3    22    1
     9     3     4    1
    10     3     6    1
    11     4     5    1
    12     4    31    1
    13     4    32    1
    14     5    33    1
    15     5    34    1
    16     5    35    1
    17     6     7    1
    18     6     8    1
    19     6    21    1
    20     8     9   am
    21     8    36    1
    22     9    10    2
    23     9    11    1
    24    11    12    1
    25    11    37    1
    26    11    38    1
    27    12    13    1
    28    12    39    1
    29    12    40    1
    30    13    14   am
    31    13    41    1
    32    14    15    2
    33    14    16    1
    34    16    17    1
    35    17    18    1
    36    17    19    1
    37    17    20    1
    38    18    42    1
    39    18    43    1
    40    18    44    1
    41    19    45    1
    42    19    46    1
    43    19    47    1
    44    20    48    1
    45    20    49    1
    46    20    50    1
    47    21    22    1
    48    21    51    1
    49    21    52    1
    50    22    23    1
    51    22    24    1
    52    24    25    1
    53    25    53    1
    54    25    54    1
    55    25    55    1
@<TRIPOS>SUBSTRUCTURE
     1 ZINC000151850193        1 TEMP              0 ****  ****    0 ROOT


##########                                Name:    ZINC000252489163
##########                DOCK_Rotatable_Bonds:                   6
##########                         Heavy_Atoms:                  25
##########                    Molecular_Weight:             379.403
##########                DOCK_Rotatable_Bonds:                   6
##########                       Formal_Charge:          0.00999963
##########                     HBond_Acceptors:                  10
##########                        HBond_Donors:                   2
##########                         Heavy_Atoms:                  25
##########                          Grid_Score:          -27.855982
##########                     Grid_vdw_energy:          -26.814547
##########                      Grid_es_energy:           -1.041435
##########           Internal_energy_repulsive:           10.046276

@<TRIPOS>MOLECULE
ZINC000252489163
 45 46 1 0 0
SMALL
USER_CHARGES


@<TRIPOS>ATOM
      1 C1          2.9343    4.9610   48.9865 C.3     1  ZINC000252489163   -0.1100
      2 C2          2.2682    3.9271   49.8574 C.ar    1  ZINC000252489163   -0.0600
      3 C3          1.1416    4.2593   50.5835 C.ar    1  ZINC000252489163   -0.1300
      4 C4          0.5280    3.3058   51.3856 C.ar    1  ZINC000252489163    0.1700
      5 N5         -0.6142    3.6391   52.1223 N.am    1  ZINC000252489163   -0.6800
      6 C6         -1.8111    3.7240   51.5084 C.2     1  ZINC000252489163    0.7100
      7 O7         -1.8984    3.5111   50.3145 O.2     1  ZINC000252489163   -0.5500
      8 N8         -2.9111    4.0450   52.2180 N.am    1  ZINC000252489163   -0.6200
      9 C9         -2.8215    4.3051   53.6612 C.3     1  ZINC000252489163    0.1000
     10 C10        -3.8300    3.4093   54.3872 C.3     1  ZINC000252489163   -0.1400
     11 C11        -5.2231    3.6315   53.7939 C.3     1  ZINC000252489163   -0.1300
     12 C12        -5.2155    3.2481   52.3123 C.3     1  ZINC000252489163    0.1400
     13 H13        -4.9166    2.2051   52.2080 H       1  ZINC000252489163    0.0900
     14 N14        -6.5572    3.4306   51.7530 N.am    1  ZINC000252489163   -1.1100
     15 S15        -7.1304    2.3735   50.6144 S.o2    1  ZINC000252489163    2.6100
     16 C16        -7.1123    0.7606   51.4442 C.3     1  ZINC000252489163   -0.6700
     17 O17        -8.4659    2.7995   50.3815 O.2     1  ZINC000252489163   -0.9500
     18 O18        -6.1579    2.4125   49.5790 O.2     1  ZINC000252489163   -0.9500
     19 C19        -4.2216    4.1476   51.5618 C.3     1  ZINC000252489163    0.1100
     20 C20         1.0500    2.0211   51.4547 C.ar    1  ZINC000252489163   -0.1000
     21 C21         2.1773    1.6951   50.7259 C.ar    1  ZINC000252489163   -0.1600
     22 C22         2.7446    0.3009   50.8004 C.3     1  ZINC000252489163    0.5100
     23 F23         1.6989   -0.6236   50.8945 F       1  ZINC000252489163   -0.1700
     24 F24         3.4948    0.0406   49.6485 F       1  ZINC000252489163   -0.1800
     25 F25         3.5668    0.1914   51.9270 F       1  ZINC000252489163   -0.1800
     26 C26         2.7827    2.6451   49.9243 C.ar    1  ZINC000252489163   -0.0900
     27 H27         2.4987    4.9299   47.9878 H       1  ZINC000252489163    0.0800
     28 H28         2.7841    5.9506   49.4177 H       1  ZINC000252489163    0.0700
     29 H29         4.0019    4.7501   48.9239 H       1  ZINC000252489163    0.0700
     30 H30         0.7381    5.2595   50.5280 H       1  ZINC000252489163    0.1300
     31 H31        -0.5446    3.8090   53.0748 H       1  ZINC000252489163    0.4100
     32 H32        -1.8141    4.0795   54.0113 H       1  ZINC000252489163    0.0800
     33 H33        -3.0534    5.3516   53.8590 H       1  ZINC000252489163    0.0800
     34 H34        -3.5442    2.3649   54.2633 H       1  ZINC000252489163    0.0700
     35 H35        -3.8422    3.6604   55.4479 H       1  ZINC000252489163    0.0900
     36 H36        -5.9469    3.0135   54.3252 H       1  ZINC000252489163    0.0800
     37 H37        -5.4981    4.6813   53.8958 H       1  ZINC000252489163    0.0800
     38 H38        -7.1098    4.1705   52.0498 H       1  ZINC000252489163    0.4200
     39 H39        -7.7539    0.7978   52.3246 H       1  ZINC000252489163    0.1300
     40 H40        -7.4786   -0.0044   50.7597 H       1  ZINC000252489163    0.1300
     41 H41        -6.0935    0.5192   51.7472 H       1  ZINC000252489163    0.1300
     42 H42        -4.5703    5.1799   51.5892 H       1  ZINC000252489163    0.0800
     43 H43        -4.1377    3.8155   50.5270 H       1  ZINC000252489163    0.1100
     44 H44         0.5755    1.2775   52.0778 H       1  ZINC000252489163    0.1800
     45 H45         3.6637    2.3876   49.3552 H       1  ZINC000252489163    0.1300
@<TRIPOS>BOND
     1     1     2    1
     2     1    27    1
     3     1    28    1
     4     1    29    1
     5     2    26   ar
     6     2     3   ar
     7     3     4   ar
     8     3    30    1
     9     4     5    1
    10     4    20   ar
    11     5     6   am
    12     5    31    1
    13     6     7    2
    14     6     8   am
    15     8    19    1
    16     8     9    1
    17     9    10    1
    18     9    32    1
    19     9    33    1
    20    10    11    1
    21    10    34    1
    22    10    35    1
    23    11    12    1
    24    11    36    1
    25    11    37    1
    26    12    13    1
    27    12    14    1
    28    12    19    1
    29    14    15   am
    30    14    38    1
    31    15    16    1
    32    15    17    2
    33    15    18    2
    34    16    39    1
    35    16    40    1
    36    16    41    1
    37    19    42    1
    38    19    43    1
    39    20    21   ar
    40    20    44    1
    41    21    22    1
    42    21    26   ar
    43    22    23    1
    44    22    24    1
    45    22    25    1
    46    26    45    1
@<TRIPOS>SUBSTRUCTURE
     1 ZINC000252489163        1 TEMP              0 ****  ****    0 ROOT


##########                                Name:    ZINC000467104849
##########                DOCK_Rotatable_Bonds:                   6
##########                         Heavy_Atoms:                  29
##########                    Molecular_Weight:             421.896
##########                DOCK_Rotatable_Bonds:                   6
##########                       Formal_Charge:           0.0200002
##########                     HBond_Acceptors:                   7
##########                        HBond_Donors:                   0
##########                         Heavy_Atoms:                  29
##########                          Grid_Score:          -27.854403
##########                     Grid_vdw_energy:          -27.506086
##########                      Grid_es_energy:           -0.348316
##########           Internal_energy_repulsive:           66.974449

@<TRIPOS>MOLECULE
ZINC000467104849
 54 56 1 0 0
SMALL
USER_CHARGES


@<TRIPOS>ATOM
      1 C1        -14.5270   -5.5636   56.5960 C.3     1  ZINC000467104849    0.0200
      2 O2        -14.6693   -4.6514   57.6868 O.3     1  ZINC000467104849   -0.3000
      3 C3        -14.0936   -3.4273   57.5470 C.ar    1  ZINC000467104849    0.1000
      4 C4        -13.2019   -3.1935   56.5131 C.ar    1  ZINC000467104849   -0.1700
      5 C5        -12.6177   -1.9481   56.3721 C.ar    1  ZINC000467104849   -0.1200
      6 C6        -12.9210   -0.9345   57.2614 C.ar    1  ZINC000467104849   -0.0800
      7 C7        -12.2811    0.4207   57.1035 C.3     1  ZINC000467104849   -0.0400
      8 C8        -10.9493    0.2731   56.3650 C.3     1  ZINC000467104849   -0.1300
      9 C9        -13.2107    1.3333   56.3011 C.3     1  ZINC000467104849   -0.1600
     10 C10       -12.0373    1.0226   58.4634 C.2     1  ZINC000467104849    0.5300
     11 O11       -12.3702    2.1669   58.6887 O.2     1  ZINC000467104849   -0.5300
     12 N12       -11.4494    0.2893   59.4293 N.am    1  ZINC000467104849   -0.6100
     13 C13       -11.0368   -1.1010   59.1796 C.3     1  ZINC000467104849    0.0600
     14 C14        -9.5784   -1.2598   59.6240 C.3     1  ZINC000467104849    0.0500
     15 O15        -9.4414   -0.7884   60.9667 O.3     1  ZINC000467104849   -0.3700
     16 C16        -9.7339    0.6012   61.1318 C.3     1  ZINC000467104849    0.1300
     17 H17        -9.0882    1.1892   60.4796 H       1  ZINC000467104849    0.0800
     18 C18        -9.4969    0.9986   62.5660 C.ar    1  ZINC000467104849   -0.0900
     19 C19        -9.6779    2.3118   62.9575 C.ar    1  ZINC000467104849   -0.0500
     20 C20        -9.4609    2.6782   64.2727 C.ar    1  ZINC000467104849   -0.1400
     21 C21        -9.0627    1.7295   65.1984 C.ar    1  ZINC000467104849    0.1200
     22 F22        -8.8508    2.0865   66.4840 F       1  ZINC000467104849   -0.1200
     23 C23        -8.8818    0.4129   64.8053 C.ar    1  ZINC000467104849   -0.0800
     24 Cl24       -8.3823   -0.7789   65.9645 Cl      1  ZINC000467104849   -0.0400
     25 C25        -9.1042    0.0483   63.4901 C.ar    1  ZINC000467104849   -0.0700
     26 C26       -11.1953    0.8571   60.7629 C.3     1  ZINC000467104849    0.0900
     27 C27       -13.8107   -1.1610   58.2956 C.ar    1  ZINC000467104849   -0.1600
     28 C28       -14.4035   -2.4048   58.4392 C.ar    1  ZINC000467104849    0.1100
     29 O29       -15.2786   -2.6293   59.4557 O.3     1  ZINC000467104849   -0.3000
     30 C30       -15.5594   -1.5302   60.3248 C.3     1  ZINC000467104849    0.0200
     31 H31       -15.0312   -6.4994   56.8369 H       1  ZINC000467104849    0.1000
     32 H32       -14.9724   -5.1310   55.7001 H       1  ZINC000467104849    0.0600
     33 H33       -13.4688   -5.7560   56.4189 H       1  ZINC000467104849    0.0600
     34 H34       -12.9626   -3.9841   55.8173 H       1  ZINC000467104849    0.1400
     35 H35       -11.9226   -1.7671   55.5656 H       1  ZINC000467104849    0.1300
     36 H36       -11.1337   -0.0791   55.3501 H       1  ZINC000467104849    0.0700
     37 H37       -10.4449    1.2387   56.3286 H       1  ZINC000467104849    0.0700
     38 H38       -10.3203   -0.4457   56.8903 H       1  ZINC000467104849    0.0700
     39 H39       -14.1245    1.5104   56.8683 H       1  ZINC000467104849    0.0700
     40 H40       -12.7116    2.2833   56.1104 H       1  ZINC000467104849    0.0700
     41 H41       -13.4583    0.8563   55.3528 H       1  ZINC000467104849    0.0700
     42 H42       -11.6704   -1.7801   59.7502 H       1  ZINC000467104849    0.0800
     43 H43       -11.1229   -1.3241   58.1161 H       1  ZINC000467104849    0.1100
     44 H44        -9.2959   -2.3115   59.5768 H       1  ZINC000467104849    0.1100
     45 H45        -8.9320   -0.6786   58.9664 H       1  ZINC000467104849    0.0600
     46 H46        -9.9887    3.0522   62.2354 H       1  ZINC000467104849    0.1500
     47 H47        -9.6019    3.7046   64.5777 H       1  ZINC000467104849    0.1500
     48 H48        -8.9638   -0.9776   63.1832 H       1  ZINC000467104849    0.1500
     49 H49       -11.3881    1.9299   60.7495 H       1  ZINC000467104849    0.1100
     50 H50       -11.8476    0.3755   61.4912 H       1  ZINC000467104849    0.0800
     51 H51       -14.0461   -0.3673   58.9890 H       1  ZINC000467104849    0.1400
     52 H52       -14.6365   -1.1985   60.8006 H       1  ZINC000467104849    0.0600
     53 H53       -15.9855   -0.7099   59.7471 H       1  ZINC000467104849    0.0600
     54 H54       -16.2701   -1.8438   61.0893 H       1  ZINC000467104849    0.1000
@<TRIPOS>BOND
     1     1     2    1
     2     1    31    1
     3     1    32    1
     4     1    33    1
     5     2     3    1
     6     3    28   ar
     7     3     4   ar
     8     4     5   ar
     9     4    34    1
    10     5     6   ar
    11     5    35    1
    12     6     7    1
    13     6    27   ar
    14     7     8    1
    15     7     9    1
    16     7    10    1
    17     8    36    1
    18     8    37    1
    19     8    38    1
    20     9    39    1
    21     9    40    1
    22     9    41    1
    23    10    11    2
    24    10    12   am
    25    12    26    1
    26    12    13    1
    27    13    14    1
    28    13    42    1
    29    13    43    1
    30    14    15    1
    31    14    44    1
    32    14    45    1
    33    15    16    1
    34    16    17    1
    35    16    18    1
    36    16    26    1
    37    18    25   ar
    38    18    19   ar
    39    19    20   ar
    40    19    46    1
    41    20    21   ar
    42    20    47    1
    43    21    22    1
    44    21    23   ar
    45    23    24    1
    46    23    25   ar
    47    25    48    1
    48    26    49    1
    49    26    50    1
    50    27    28   ar
    51    27    51    1
    52    28    29    1
    53    29    30    1
    54    30    52    1
    55    30    53    1
    56    30    54    1
@<TRIPOS>SUBSTRUCTURE
     1 ZINC000467104849        1 TEMP              0 ****  ****    0 ROOT


##########                                Name:    ZINC000119180466
##########                DOCK_Rotatable_Bonds:                  10
##########                         Heavy_Atoms:                  23
##########                    Molecular_Weight:             350.405
##########                DOCK_Rotatable_Bonds:                  10
##########                       Formal_Charge:           0.0299997
##########                     HBond_Acceptors:                   8
##########                        HBond_Donors:                   3
##########                         Heavy_Atoms:                  23
##########                          Grid_Score:          -27.852919
##########                     Grid_vdw_energy:          -26.634047
##########                      Grid_es_energy:           -1.218872
##########           Internal_energy_repulsive:           12.105824

@<TRIPOS>MOLECULE
ZINC000119180466
 44 44 1 0 0
SMALL
USER_CHARGES


@<TRIPOS>ATOM
      1 C1        -14.4096   -2.4641   61.4984 C.3     1  ZINC000119180466   -0.1300
      2 S2        -15.1269   -1.1993   60.4138 S.3     1  ZINC000119180466   -0.2200
      3 C3        -15.1289   -2.0078   58.7899 C.3     1  ZINC000119180466   -0.0700
      4 H4        -15.6466   -1.3746   58.0694 H       1  ZINC000119180466    0.1100
      5 C5        -15.8459   -3.3555   58.8921 C.3     1  ZINC000119180466    0.0800
      6 O6        -16.6001   -3.5853   57.7002 O.3     1  ZINC000119180466   -0.5600
      7 C7        -13.6870   -2.2307   58.3294 C.3     1  ZINC000119180466    0.1900
      8 H8        -13.2333   -3.0222   58.9260 H       1  ZINC000119180466    0.1000
      9 C9        -13.6797   -2.6364   56.8542 C.3     1  ZINC000119180466   -0.1700
     10 N10       -12.9232   -0.9923   58.4993 N.am    1  ZINC000119180466   -0.7200
     11 C11       -11.6031   -1.0459   58.7658 C.2     1  ZINC000119180466    0.7100
     12 O12       -11.0459   -2.1222   58.8639 O.2     1  ZINC000119180466   -0.6000
     13 N13       -10.9006    0.0935   58.9236 N.am    1  ZINC000119180466   -0.7400
     14 C14        -9.4654    0.0352   59.2117 C.3     1  ZINC000119180466    0.2000
     15 H15        -9.0669   -0.9236   58.8801 H       1  ZINC000119180466    0.1000
     16 C16        -8.7505    1.1679   58.4721 C.3     1  ZINC000119180466   -0.1600
     17 C17        -9.2443    0.1854   60.6948 C.ar    1  ZINC000119180466   -0.0600
     18 C18        -9.7352    1.2944   61.3580 C.ar    1  ZINC000119180466   -0.1100
     19 C19        -9.5323    1.4321   62.7185 C.ar    1  ZINC000119180466   -0.0600
     20 C20        -8.8388    0.4605   63.4157 C.ar    1  ZINC000119180466   -0.1800
     21 C21        -8.6171    0.6109   64.8986 C.3     1  ZINC000119180466    0.5100
     22 F22        -7.4824    1.3979   65.1230 F       1  ZINC000119180466   -0.1800
     23 F23        -9.7327    1.2256   65.4771 F       1  ZINC000119180466   -0.1800
     24 F24        -8.4302   -0.6512   65.4725 F       1  ZINC000119180466   -0.1800
     25 C25        -8.3490   -0.6491   62.7527 C.ar    1  ZINC000119180466   -0.0600
     26 C26        -8.5553   -0.7887   61.3929 C.ar    1  ZINC000119180466   -0.1100
     27 H27       -13.4061   -2.7125   61.1528 H       1  ZINC000119180466    0.0800
     28 H28       -14.3585   -2.0819   62.5180 H       1  ZINC000119180466    0.1000
     29 H29       -15.0331   -3.3579   61.4763 H       1  ZINC000119180466    0.0800
     30 H30       -15.1099   -4.1501   59.0152 H       1  ZINC000119180466    0.0500
     31 H31       -16.5172   -3.3459   59.7507 H       1  ZINC000119180466    0.0600
     32 H32       -17.1588   -4.3739   57.7343 H       1  ZINC000119180466    0.3800
     33 H33       -14.1334   -1.8449   56.2575 H       1  ZINC000119180466    0.0700
     34 H34       -12.6524   -2.7952   56.5262 H       1  ZINC000119180466    0.0700
     35 H35       -14.2480   -3.5578   56.7278 H       1  ZINC000119180466    0.0700
     36 H36       -13.3674   -0.1337   58.4198 H       1  ZINC000119180466    0.4100
     37 H37       -11.3454    0.9520   58.8465 H       1  ZINC000119180466    0.4000
     38 H38        -7.6827    1.1246   58.6864 H       1  ZINC000119180466    0.0700
     39 H39        -8.9106    1.0592   57.3994 H       1  ZINC000119180466    0.0700
     40 H40        -9.1490    2.1267   58.8037 H       1  ZINC000119180466    0.0600
     41 H41       -10.2770    2.0534   60.8133 H       1  ZINC000119180466    0.1300
     42 H42        -9.9152    2.2989   63.2365 H       1  ZINC000119180466    0.1400
     43 H43        -7.8075   -1.4083   63.2974 H       1  ZINC000119180466    0.1400
     44 H44        -8.1726   -1.6556   60.8748 H       1  ZINC000119180466    0.1400
@<TRIPOS>BOND
     1     1     2    1
     2     1    27    1
     3     1    28    1
     4     1    29    1
     5     2     3    1
     6     3     4    1
     7     3     5    1
     8     3     7    1
     9     5     6    1
    10     5    30    1
    11     5    31    1
    12     6    32    1
    13     7     8    1
    14     7     9    1
    15     7    10    1
    16     9    33    1
    17     9    34    1
    18     9    35    1
    19    10    11   am
    20    10    36    1
    21    11    12    2
    22    11    13   am
    23    13    14    1
    24    13    37    1
    25    14    15    1
    26    14    16    1
    27    14    17    1
    28    16    38    1
    29    16    39    1
    30    16    40    1
    31    17    26   ar
    32    17    18   ar
    33    18    19   ar
    34    18    41    1
    35    19    20   ar
    36    19    42    1
    37    20    21    1
    38    20    25   ar
    39    21    22    1
    40    21    23    1
    41    21    24    1
    42    25    26   ar
    43    25    43    1
    44    26    44    1
@<TRIPOS>SUBSTRUCTURE
     1 ZINC000119180466        1 TEMP              0 ****  ****    0 ROOT


##########                                Name:    ZINC000053543817
##########                DOCK_Rotatable_Bonds:                   7
##########                         Heavy_Atoms:                  25
##########                    Molecular_Weight:             350.458
##########                DOCK_Rotatable_Bonds:                   7
##########                       Formal_Charge:           0.0199998
##########                     HBond_Acceptors:                   6
##########                        HBond_Donors:                   2
##########                         Heavy_Atoms:                  25
##########                          Grid_Score:          -27.847349
##########                     Grid_vdw_energy:          -26.365669
##########                      Grid_es_energy:           -1.481681
##########           Internal_energy_repulsive:           16.470251

@<TRIPOS>MOLECULE
ZINC000053543817
 55 56 1 0 0
SMALL
USER_CHARGES


@<TRIPOS>ATOM
      1 C1        -16.0281   -3.0491   59.8937 C.3     1  ZINC000053543817   -0.0700
      2 C2        -15.0548   -2.6502   58.8144 C.2     1  ZINC000053543817   -0.0200
      3 C3        -13.7283   -2.4750   58.9758 C.2     1  ZINC000053543817   -0.1800
      4 C4        -13.2145   -2.1095   57.7186 C.2     1  ZINC000053543817   -0.1900
      5 C5        -14.2522   -2.0817   56.8573 C.2     1  ZINC000053543817    0.0000
      6 C6        -14.1230   -1.7330   55.3945 C.3     1  ZINC000053543817   -0.0300
      7 C7        -12.6456   -1.8422   54.9988 C.3     1  ZINC000053543817   -0.0500
      8 C8        -12.2244   -3.3132   55.0020 C.3     1  ZINC000053543817   -0.1500
      9 C9        -12.4487   -1.2587   53.5981 C.3     1  ZINC000053543817   -0.1400
     10 C10       -11.7881   -1.0639   56.0005 C.3     1  ZINC000053543817   -0.1200
     11 C11       -11.7883   -1.7959   57.3487 C.3     1  ZINC000053543817    0.2200
     12 H12       -11.2187   -2.7213   57.2639 H       1  ZINC000053543817    0.1000
     13 N13       -11.1886   -0.9398   58.3751 N.am    1  ZINC000053543817   -0.7100
     14 C14       -10.1200   -1.3723   59.0733 C.2     1  ZINC000053543817    0.5100
     15 O15        -9.6558   -2.4708   58.8529 O.2     1  ZINC000053543817   -0.5300
     16 C16        -9.5020   -0.4908   60.1280 C.3     1  ZINC000053543817    0.1400
     17 H17        -8.4676   -0.7919   60.2928 H       1  ZINC000053543817    0.1200
     18 C18       -10.2878   -0.6297   61.4333 C.3     1  ZINC000053543817   -0.1600
     19 N19        -9.5394    0.9041   59.6816 N.am    1  ZINC000053543817   -0.7000
     20 C20        -8.6811    1.3318   58.7345 C.2     1  ZINC000053543817    0.6600
     21 O21        -7.8754    0.5609   58.2520 O.2     1  ZINC000053543817   -0.5700
     22 O22        -8.7166    2.6133   58.3232 O.3     1  ZINC000053543817   -0.3600
     23 C23        -8.8085    2.8442   56.8926 C.3     1  ZINC000053543817    0.1400
     24 C24        -9.7081    1.7799   56.2610 C.3     1  ZINC000053543817   -0.1800
     25 C25        -9.4019    4.2309   56.6369 C.3     1  ZINC000053543817   -0.1400
     26 C26        -7.4119    2.7648   56.2725 C.3     1  ZINC000053543817   -0.1800
     27 O27       -15.3625   -2.4145   57.5263 O.3     1  ZINC000053543817   -0.1700
     28 H28       -17.0305   -3.1189   59.4712 H       1  ZINC000053543817    0.0800
     29 H29       -15.7388   -4.0164   60.3044 H       1  ZINC000053543817    0.0800
     30 H30       -16.0190   -2.3005   60.6859 H       1  ZINC000053543817    0.0800
     31 H31       -13.1689   -2.5920   59.8922 H       1  ZINC000053543817    0.1400
     32 H32       -14.7144   -2.4281   54.7985 H       1  ZINC000053543817    0.0900
     33 H33       -14.4724   -0.7139   55.2286 H       1  ZINC000053543817    0.0900
     34 H34       -12.8339   -3.8671   54.2881 H       1  ZINC000053543817    0.0600
     35 H35       -11.1742   -3.3909   54.7207 H       1  ZINC000053543817    0.0600
     36 H36       -12.3652   -3.7291   55.9996 H       1  ZINC000053543817    0.0600
     37 H37       -12.7492   -0.2110   53.5955 H       1  ZINC000053543817    0.0600
     38 H38       -11.3985   -1.3362   53.3166 H       1  ZINC000053543817    0.0600
     39 H39       -13.0581   -1.8134   52.8845 H       1  ZINC000053543817    0.0600
     40 H40       -10.7670   -0.9919   55.6261 H       1  ZINC000053543817    0.0800
     41 H41       -12.1993   -0.0628   56.1302 H       1  ZINC000053543817    0.0700
     42 H42       -11.5606   -0.0617   58.5522 H       1  ZINC000053543817    0.4000
     43 H43       -10.2602   -1.6676   61.7654 H       1  ZINC000053543817    0.0800
     44 H44        -9.8410    0.0079   62.1961 H       1  ZINC000053543817    0.0800
     45 H45       -11.3224   -0.3285   61.2684 H       1  ZINC000053543817    0.0700
     46 H46       -10.1818    1.5199   60.0677 H       1  ZINC000053543817    0.4200
     47 H47       -10.7030    1.8365   56.7028 H       1  ZINC000053543817    0.0600
     48 H48        -9.7770    1.9532   55.1870 H       1  ZINC000053543817    0.0700
     49 H49        -9.2852    0.7919   56.4433 H       1  ZINC000053543817    0.0900
     50 H50        -8.7610    4.9891   57.0868 H       1  ZINC000053543817    0.0700
     51 H51        -9.4709    4.4042   55.5629 H       1  ZINC000053543817    0.0800
     52 H52       -10.3968    4.2875   57.0786 H       1  ZINC000053543817    0.0700
     53 H53        -6.9891    1.7768   56.4548 H       1  ZINC000053543817    0.0900
     54 H54        -7.4808    2.9381   55.1986 H       1  ZINC000053543817    0.0700
     55 H55        -6.7710    3.5229   56.7225 H       1  ZINC000053543817    0.0600
@<TRIPOS>BOND
     1     1     2    1
     2     1    28    1
     3     1    29    1
     4     1    30    1
     5     2    27    1
     6     2     3    2
     7     3     4    1
     8     3    31    1
     9     4    11    1
    10     4     5    2
    11     5     6    1
    12     5    27    1
    13     6     7    1
    14     6    32    1
    15     6    33    1
    16     7     8    1
    17     7     9    1
    18     7    10    1
    19     8    34    1
    20     8    35    1
    21     8    36    1
    22     9    37    1
    23     9    38    1
    24     9    39    1
    25    10    11    1
    26    10    40    1
    27    10    41    1
    28    11    12    1
    29    11    13    1
    30    13    14   am
    31    13    42    1
    32    14    15    2
    33    14    16    1
    34    16    17    1
    35    16    18    1
    36    16    19    1
    37    18    43    1
    38    18    44    1
    39    18    45    1
    40    19    20   am
    41    19    46    1
    42    20    21    2
    43    20    22    1
    44    22    23    1
    45    23    24    1
    46    23    25    1
    47    23    26    1
    48    24    47    1
    49    24    48    1
    50    24    49    1
    51    25    50    1
    52    25    51    1
    53    25    52    1
    54    26    53    1
    55    26    54    1
    56    26    55    1
@<TRIPOS>SUBSTRUCTURE
     1 ZINC000053543817        1 TEMP              0 ****  ****    0 ROOT


##########                                Name:    ZINC000543429378
##########                DOCK_Rotatable_Bonds:                   6
##########                         Heavy_Atoms:                  29
##########                    Molecular_Weight:             406.408
##########                DOCK_Rotatable_Bonds:                   6
##########                       Formal_Charge:           0.0100003
##########                     HBond_Acceptors:                   9
##########                        HBond_Donors:                   1
##########                         Heavy_Atoms:                  29
##########                          Grid_Score:          -27.830753
##########                     Grid_vdw_energy:          -26.193153
##########                      Grid_es_energy:           -1.637600
##########           Internal_energy_repulsive:           36.023579

@<TRIPOS>MOLECULE
ZINC000543429378
 50 53 1 0 0
SMALL
USER_CHARGES


@<TRIPOS>ATOM
      1 O1         -3.5145    5.4239   55.3108 O.2     1  ZINC000543429378   -0.5100
      2 C2         -4.1627    4.4868   54.8952 C.2     1  ZINC000543429378    0.5200
      3 N3         -3.8019    3.2264   55.2078 N.am    1  ZINC000543429378   -0.6600
      4 C4         -2.6763    2.9987   56.0070 C.ar    1  ZINC000543429378    0.1900
      5 C5         -2.7505    2.1172   57.0776 C.ar    1  ZINC000543429378   -0.1600
      6 C6         -1.6388    1.8920   57.8666 C.ar    1  ZINC000543429378   -0.0600
      7 C7         -0.4511    2.5430   57.5932 C.ar    1  ZINC000543429378   -0.2100
      8 C8         -0.3711    3.4251   56.5244 C.ar    1  ZINC000543429378    0.1300
      9 O9          0.7977    4.0647   56.2568 O.3     1  ZINC000543429378   -0.3100
     10 C10         1.3778    3.8442   54.9696 C.3     1  ZINC000543429378    0.6000
     11 F11         0.9657    4.8538   54.0931 F       1  ZINC000543429378   -0.1600
     12 F12         2.7726    3.8612   55.0776 F       1  ZINC000543429378   -0.1300
     13 F13         0.9633    2.6019   54.4778 F       1  ZINC000543429378   -0.1600
     14 C14        -1.4825    3.6493   55.7274 C.ar    1  ZINC000543429378   -0.1300
     15 C15        -5.3751    4.7320   54.0344 C.3     1  ZINC000543429378    0.0700
     16 H16        -5.7542    5.7395   54.2052 H       1  ZINC000543429378    0.1200
     17 C17        -6.4777    3.6885   54.3633 C.3     1  ZINC000543429378   -0.1200
     18 C18        -7.0650    3.4010   52.9729 C.3     1  ZINC000543429378   -0.1000
     19 H19        -7.7413    4.1967   52.6608 H       1  ZINC000543429378    0.0900
     20 C20        -7.7177    2.0384   52.8140 C.3     1  ZINC000543429378   -0.1100
     21 C21        -8.1226    1.8953   51.3382 C.3     1  ZINC000543429378   -0.1200
     22 C22        -6.9190    2.0399   50.4116 C.3     1  ZINC000543429378   -0.1100
     23 C23        -6.1730    3.3607   50.6640 C.3     1  ZINC000543429378   -0.0900
     24 C24        -5.7678    3.3976   52.1192 C.3     1  ZINC000543429378    0.0700
     25 H25        -5.2062    2.4947   52.3589 H       1  ZINC000543429378    0.0900
     26 N26        -5.0218    4.5600   52.6009 N.3     1  ZINC000543429378   -0.4300
     27 C27        -3.6585    4.3694   52.4560 C.ar    1  ZINC000543429378    0.5000
     28 N28        -3.1936    3.1434   52.2658 N.ar    1  ZINC000543429378   -0.5300
     29 C29        -1.8965    2.9268   52.1231 C.ar    1  ZINC000543429378    0.1800
     30 C30        -1.0219    4.0008   52.1748 C.ar    1  ZINC000543429378   -0.2500
     31 C31        -1.5421    5.2698   52.3752 C.ar    1  ZINC000543429378    0.1800
     32 N32        -2.8501    5.4179   52.5054 N.ar    1  ZINC000543429378   -0.5300
     33 H33        -4.3227    2.4772   54.8786 H       1  ZINC000543429378    0.4200
     34 H34        -3.6779    1.6077   57.2939 H       1  ZINC000543429378    0.1400
     35 H35        -1.6984    1.2063   58.6988 H       1  ZINC000543429378    0.1400
     36 H36         0.4160    2.3655   58.2120 H       1  ZINC000543429378    0.1400
     37 H37        -1.4221    4.3352   54.8954 H       1  ZINC000543429378    0.1500
     38 H38        -6.0447    2.7874   54.7974 H       1  ZINC000543429378    0.0800
     39 H39        -7.2325    4.1142   55.0247 H       1  ZINC000543429378    0.0900
     40 H40        -7.0095    1.2544   53.0820 H       1  ZINC000543429378    0.0700
     41 H41        -8.6014    1.9741   53.4489 H       1  ZINC000543429378    0.0700
     42 H42        -8.5735    0.9146   51.1860 H       1  ZINC000543429378    0.0600
     43 H43        -8.8549    2.6645   51.0935 H       1  ZINC000543429378    0.0600
     44 H44        -6.2366    1.2069   50.5808 H       1  ZINC000543429378    0.0600
     45 H45        -7.2605    2.0152   49.3769 H       1  ZINC000543429378    0.0700
     46 H46        -5.2871    3.4128   50.0311 H       1  ZINC000543429378    0.0700
     47 H47        -6.8306    4.2041   50.4527 H       1  ZINC000543429378    0.0700
     48 H48        -1.5234    1.9251   51.9687 H       1  ZINC000543429378    0.1600
     49 H49         0.0418    3.8521   52.0617 H       1  ZINC000543429378    0.1400
     50 H50        -0.8877    6.1278   52.4208 H       1  ZINC000543429378    0.1600
@<TRIPOS>BOND
     1     1     2    2
     2     2     3   am
     3     2    15    1
     4     3     4    1
     5     3    33    1
     6     4    14   ar
     7     4     5   ar
     8     5     6   ar
     9     5    34    1
    10     6     7   ar
    11     6    35    1
    12     7     8   ar
    13     7    36    1
    14     8     9    1
    15     8    14   ar
    16     9    10    1
    17    10    11    1
    18    10    12    1
    19    10    13    1
    20    14    37    1
    21    15    16    1
    22    15    26    1
    23    15    17    1
    24    17    18    1
    25    17    38    1
    26    17    39    1
    27    18    19    1
    28    18    24    1
    29    18    20    1
    30    20    21    1
    31    20    40    1
    32    20    41    1
    33    21    22    1
    34    21    42    1
    35    21    43    1
    36    22    23    1
    37    22    44    1
    38    22    45    1
    39    23    24    1
    40    23    46    1
    41    23    47    1
    42    24    25    1
    43    24    26    1
    44    26    27    1
    45    27    32   ar
    46    27    28   ar
    47    28    29   ar
    48    29    30   ar
    49    29    48    1
    50    30    31   ar
    51    30    49    1
    52    31    32   ar
    53    31    50    1
@<TRIPOS>SUBSTRUCTURE
     1 ZINC000543429378        1 TEMP              0 ****  ****    0 ROOT


##########                                Name:    ZINC000516003207
##########                DOCK_Rotatable_Bonds:                   5
##########                         Heavy_Atoms:                  24
##########                    Molecular_Weight:             342.462
##########                DOCK_Rotatable_Bonds:                   5
##########                       Formal_Charge:          -0.0200001
##########                     HBond_Acceptors:                   5
##########                        HBond_Donors:                   1
##########                         Heavy_Atoms:                  24
##########                          Grid_Score:          -27.816021
##########                     Grid_vdw_energy:          -27.857023
##########                      Grid_es_energy:            0.041002
##########           Internal_energy_repulsive:            9.764090

@<TRIPOS>MOLECULE
ZINC000516003207
 46 49 1 0 0
SMALL
USER_CHARGES


@<TRIPOS>ATOM
      1 C1         -8.9164    0.4489   63.9774 C.3     1  ZINC000516003207    0.0300
      2 O2         -8.7403    0.0732   62.6099 O.3     1  ZINC000516003207   -0.3600
      3 C3         -9.9255    0.1845   61.8194 C.3     1  ZINC000516003207    0.0900
      4 H4        -10.8154   -0.1737   62.3368 H       1  ZINC000516003207    0.0800
      5 C5        -10.1050    1.5670   61.1662 C.3     1  ZINC000516003207   -0.1700
      6 C6         -9.3119    1.0214   59.9648 C.3     1  ZINC000516003207    0.1500
      7 H7         -8.2355    1.1718   60.0464 H       1  ZINC000516003207    0.1200
      8 N8         -9.8487    1.4394   58.6672 N.am    1  ZINC000516003207   -0.7200
      9 C9         -9.0717    1.3846   57.5673 C.2     1  ZINC000516003207    0.5600
     10 O10        -7.9261    0.9870   57.6516 O.2     1  ZINC000516003207   -0.5300
     11 C11        -9.6128    1.8080   56.2580 C.ar    1  ZINC000516003207   -0.1400
     12 C12       -10.9508    2.1907   56.1444 C.ar    1  ZINC000516003207   -0.0800
     13 C13       -11.4566    2.5857   54.9219 C.ar    1  ZINC000516003207   -0.1200
     14 C14       -10.6439    2.6054   53.8056 C.ar    1  ZINC000516003207   -0.0800
     15 C15        -9.3055    2.2258   53.9060 C.ar    1  ZINC000516003207   -0.0300
     16 C16        -8.4347    2.2479   52.7051 C.2     1  ZINC000516003207    0.1100
     17 C17        -8.8488    2.7072   51.5070 C.2     1  ZINC000516003207   -0.2600
     18 S18        -7.5079    2.5513   50.3751 S.3     1  ZINC000516003207    0.1400
     19 C19        -6.5268    1.8897   51.6083 C.2     1  ZINC000516003207    0.0600
     20 C20        -5.0965    1.4511   51.4259 C.3     1  ZINC000516003207   -0.0800
     21 N21        -7.1795    1.8231   52.7167 N.2     1  ZINC000516003207   -0.4700
     22 C22        -8.7871    1.8317   55.1352 C.ar    1  ZINC000516003207   -0.0300
     23 C23        -9.7732   -0.3722   60.4034 C.3     1  ZINC000516003207   -0.1100
     24 C24        -8.9204   -1.6108   60.1266 C.3     1  ZINC000516003207   -0.1200
     25 C25       -10.2404   -2.4014   60.0748 C.3     1  ZINC000516003207   -0.1400
     26 C26       -10.9333   -1.0785   59.7009 C.3     1  ZINC000516003207   -0.1200
     27 H27        -9.6700   -0.1914   64.4359 H       1  ZINC000516003207    0.0400
     28 H28        -7.9717    0.3365   64.5096 H       1  ZINC000516003207    0.0900
     29 H29        -9.2416    1.4879   64.0298 H       1  ZINC000516003207    0.0400
     30 H30       -11.1420    1.8070   60.9314 H       1  ZINC000516003207    0.0900
     31 H31        -9.5941    2.3699   61.6976 H       1  ZINC000516003207    0.0800
     32 H32       -10.7633    1.7554   58.5997 H       1  ZINC000516003207    0.4000
     33 H33       -11.5911    2.1774   57.0140 H       1  ZINC000516003207    0.1300
     34 H34       -12.4923    2.8803   54.8384 H       1  ZINC000516003207    0.1400
     35 H35       -11.0458    2.9150   52.8521 H       1  ZINC000516003207    0.1300
     36 H36        -9.8290    3.1006   51.2812 H       1  ZINC000516003207    0.1800
     37 H37        -4.7932    1.6218   50.3930 H       1  ZINC000516003207    0.0800
     38 H38        -4.4529    2.0244   52.0931 H       1  ZINC000516003207    0.0900
     39 H39        -5.0092    0.3901   51.6597 H       1  ZINC000516003207    0.0900
     40 H40        -7.7514    1.5370   55.2176 H       1  ZINC000516003207    0.1500
     41 H41        -8.3940   -1.5753   59.1728 H       1  ZINC000516003207    0.0800
     42 H42        -8.2744   -1.8919   60.9584 H       1  ZINC000516003207    0.0800
     43 H43       -10.2702   -3.1486   59.2818 H       1  ZINC000516003207    0.0700
     44 H44       -10.5497   -2.7974   61.0421 H       1  ZINC000516003207    0.0800
     45 H45       -11.8954   -0.9343   60.1926 H       1  ZINC000516003207    0.0700
     46 H46       -10.9727   -0.8934   58.6275 H       1  ZINC000516003207    0.0900
@<TRIPOS>BOND
     1     1     2    1
     2     1    27    1
     3     1    28    1
     4     1    29    1
     5     2     3    1
     6     3     4    1
     7     3    23    1
     8     3     5    1
     9     5     6    1
    10     5    30    1
    11     5    31    1
    12     6     7    1
    13     6     8    1
    14     6    23    1
    15     8     9   am
    16     8    32    1
    17     9    10    2
    18     9    11    1
    19    11    22   ar
    20    11    12   ar
    21    12    13   ar
    22    12    33    1
    23    13    14   ar
    24    13    34    1
    25    14    15   ar
    26    14    35    1
    27    15    16    1
    28    15    22   ar
    29    16    21    1
    30    16    17    2
    31    17    18    1
    32    17    36    1
    33    18    19    1
    34    19    20    1
    35    19    21    2
    36    20    37    1
    37    20    38    1
    38    20    39    1
    39    22    40    1
    40    23    26    1
    41    23    24    1
    42    24    25    1
    43    24    41    1
    44    24    42    1
    45    25    26    1
    46    25    43    1
    47    25    44    1
    48    26    45    1
    49    26    46    1
@<TRIPOS>SUBSTRUCTURE
     1 ZINC000516003207        1 TEMP              0 ****  ****    0 ROOT


##########                                Name:    ZINC000534799364
##########                DOCK_Rotatable_Bonds:                   4
##########                         Heavy_Atoms:                  29
##########                    Molecular_Weight:             391.491
##########                DOCK_Rotatable_Bonds:                   4
##########                       Formal_Charge:           0.0199998
##########                     HBond_Acceptors:                   6
##########                        HBond_Donors:                   0
##########                         Heavy_Atoms:                  29
##########                          Grid_Score:          -27.805462
##########                     Grid_vdw_energy:          -27.914034
##########                      Grid_es_energy:            0.108571
##########           Internal_energy_repulsive:           14.707331

@<TRIPOS>MOLECULE
ZINC000534799364
 55 59 1 0 0
SMALL
USER_CHARGES


@<TRIPOS>ATOM
      1 C1         -5.8221    3.4847   53.8858 C.3     1  ZINC000534799364   -0.1100
      2 C2         -5.5102    3.1646   52.4467 C.ar    1  ZINC000534799364   -0.0200
      3 C3         -4.3214    3.5787   51.8692 C.ar    1  ZINC000534799364   -0.1700
      4 C4         -4.0688    3.2671   50.5459 C.ar    1  ZINC000534799364    0.1000
      5 N5         -4.9418    2.5841   49.8319 N.ar    1  ZINC000534799364   -0.4800
      6 C6         -6.0849    2.1710   50.3421 C.ar    1  ZINC000534799364    0.0800
      7 C7         -6.4079    2.4399   51.6659 C.ar    1  ZINC000534799364    0.0300
      8 N8         -7.6202    2.0000   52.2032 N.3     1  ZINC000534799364   -0.5000
      9 C9         -7.8584    0.5868   51.8780 C.3     1  ZINC000534799364    0.0600
     10 C10        -9.1531    0.1228   52.5494 C.3     1  ZINC000534799364    0.0600
     11 N11       -10.2685    0.9615   52.0889 N.3     1  ZINC000534799364   -0.5300
     12 C12       -11.5432    0.4988   52.6539 C.3     1  ZINC000534799364    0.1400
     13 C13       -11.3824    0.2693   54.1347 C.2     1  ZINC000534799364    0.1100
     14 N14       -11.0582    1.1761   55.0197 N.2     1  ZINC000534799364   -0.2800
     15 N15       -11.0134    0.5635   56.2778 N.pl3   1  ZINC000534799364   -0.3100
     16 C16       -10.7030    1.1934   57.4919 C.ar    1  ZINC000534799364    0.1500
     17 C17        -9.5966    2.0275   57.5792 C.ar    1  ZINC000534799364   -0.1000
     18 C18        -9.2927    2.6469   58.7756 C.ar    1  ZINC000534799364   -0.1300
     19 C19       -10.0907    2.4364   59.8876 C.ar    1  ZINC000534799364    0.1000
     20 F20        -9.7920    3.0435   61.0570 F       1  ZINC000534799364   -0.1300
     21 C21       -11.1948    1.6048   59.8023 C.ar    1  ZINC000534799364   -0.1300
     22 C22       -11.5052    0.9882   58.6062 C.ar    1  ZINC000534799364   -0.0800
     23 C23       -11.3229   -0.7453   56.1151 C.2     1  ZINC000534799364    0.0500
     24 C24       -11.5607   -0.9515   54.8007 C.2     1  ZINC000534799364   -0.2200
     25 C25       -11.9141   -2.4025   54.5538 C.3     1  ZINC000534799364   -0.0400
     26 C26       -11.4425   -3.1501   55.8202 C.3     1  ZINC000534799364   -0.1200
     27 C27       -11.4946   -2.0346   56.8884 C.3     1  ZINC000534799364   -0.0500
     28 C28       -10.0303    2.3747   52.4142 C.3     1  ZINC000534799364    0.0600
     29 C29        -8.7356    2.8387   51.7427 C.3     1  ZINC000534799364    0.0600
     30 H30        -5.5283    2.6457   54.5166 H       1  ZINC000534799364    0.0800
     31 H31        -5.2718    4.3760   54.1874 H       1  ZINC000534799364    0.0600
     32 H32        -6.8917    3.6639   53.9946 H       1  ZINC000534799364    0.0800
     33 H33        -3.6002    4.1390   52.4457 H       1  ZINC000534799364    0.1400
     34 H34        -3.1434    3.5880   50.0907 H       1  ZINC000534799364    0.1600
     35 H35        -6.7752    1.6141   49.7258 H       1  ZINC000534799364    0.1500
     36 H36        -7.9478    0.4724   50.7976 H       1  ZINC000534799364    0.0500
     37 H37        -7.0249   -0.0151   52.2400 H       1  ZINC000534799364    0.0800
     38 H38        -9.3470   -0.9170   52.2860 H       1  ZINC000534799364    0.0900
     39 H39        -9.0537    0.2116   53.6312 H       1  ZINC000534799364    0.0500
     40 H40       -12.3110    1.2537   52.4845 H       1  ZINC000534799364    0.1000
     41 H41       -11.8373   -0.4333   52.1716 H       1  ZINC000534799364    0.0500
     42 H42        -8.9739    2.1915   56.7122 H       1  ZINC000534799364    0.1400
     43 H43        -8.4318    3.2954   58.8439 H       1  ZINC000534799364    0.1500
     44 H44       -11.8157    1.4415   60.6708 H       1  ZINC000534799364    0.1500
     45 H45       -12.3665    0.3400   58.5400 H       1  ZINC000534799364    0.1400
     46 H46       -12.9910   -2.5137   54.4272 H       1  ZINC000534799364    0.0800
     47 H47       -11.3881   -2.7761   53.6753 H       1  ZINC000534799364    0.0700
     48 H48       -12.1269   -3.9602   56.0716 H       1  ZINC000534799364    0.0800
     49 H49       -10.4267   -3.5251   55.6952 H       1  ZINC000534799364    0.0800
     50 H50       -10.6807   -2.1561   57.6032 H       1  ZINC000534799364    0.0800
     51 H51       -12.4559   -2.0466   57.4021 H       1  ZINC000534799364    0.0900
     52 H52       -10.8638    2.9766   52.0521 H       1  ZINC000534799364    0.0900
     53 H53        -9.9409    2.4891   53.4945 H       1  ZINC000534799364    0.0500
     54 H54        -8.5417    3.8785   52.0062 H       1  ZINC000534799364    0.0800
     55 H55        -8.8349    2.7497   50.6609 H       1  ZINC000534799364    0.0500
@<TRIPOS>BOND
     1     1     2    1
     2     1    30    1
     3     1    31    1
     4     1    32    1
     5     2     7   ar
     6     2     3   ar
     7     3     4   ar
     8     3    33    1
     9     4     5   ar
    10     4    34    1
    11     5     6   ar
    12     6     7   ar
    13     6    35    1
    14     7     8    1
    15     8    29    1
    16     8     9    1
    17     9    10    1
    18     9    36    1
    19     9    37    1
    20    10    11    1
    21    10    38    1
    22    10    39    1
    23    11    12    1
    24    11    28    1
    25    12    13    1
    26    12    40    1
    27    12    41    1
    28    13    24    1
    29    13    14    2
    30    14    15    1
    31    15    16    1
    32    15    23    1
    33    16    22   ar
    34    16    17   ar
    35    17    18   ar
    36    17    42    1
    37    18    19   ar
    38    18    43    1
    39    19    20    1
    40    19    21   ar
    41    21    22   ar
    42    21    44    1
    43    22    45    1
    44    23    27    1
    45    23    24    2
    46    24    25    1
    47    25    26    1
    48    25    46    1
    49    25    47    1
    50    26    27    1
    51    26    48    1
    52    26    49    1
    53    27    50    1
    54    27    51    1
    55    28    29    1
    56    28    52    1
    57    28    53    1
    58    29    54    1
    59    29    55    1
@<TRIPOS>SUBSTRUCTURE
     1 ZINC000534799364        1 TEMP              0 ****  ****    0 ROOT


##########                                Name:    ZINC000623581528
##########                DOCK_Rotatable_Bonds:                   5
##########                         Heavy_Atoms:                  26
##########                    Molecular_Weight:             355.369
##########                DOCK_Rotatable_Bonds:                   5
##########                       Formal_Charge:        -4.47035e-07
##########                     HBond_Acceptors:                   7
##########                        HBond_Donors:                   2
##########                         Heavy_Atoms:                  26
##########                          Grid_Score:          -27.792747
##########                     Grid_vdw_energy:          -26.952604
##########                      Grid_es_energy:           -0.840144
##########           Internal_energy_repulsive:            4.107872

@<TRIPOS>MOLECULE
ZINC000623581528
 44 47 1 0 0
SMALL
USER_CHARGES


@<TRIPOS>ATOM
      1 C1         -8.2360   -0.0713   63.7182 C.3     1  ZINC000623581528    0.1000
      2 N2         -9.6356    0.2666   63.4474 N.am    1  ZINC000623581528   -0.5500
      3 C3        -10.4150    1.0838   64.1830 C.2     1  ZINC000623581528    0.6300
      4 O4        -10.0659    1.6670   65.1912 O.2     1  ZINC000623581528   -0.4800
      5 O5        -11.6362    1.1540   63.6303 O.3     1  ZINC000623581528   -0.2300
      6 C6        -11.6677    0.3777   62.5196 C.ar    1  ZINC000623581528    0.0400
      7 C7        -12.6576    0.0945   61.5922 C.ar    1  ZINC000623581528   -0.0800
      8 C8        -12.3901   -0.7559   60.5366 C.ar    1  ZINC000623581528   -0.0900
      9 C9        -11.1374   -1.3274   60.4005 C.ar    1  ZINC000623581528   -0.0900
     10 C10       -10.8555   -2.2537   59.2456 C.3     1  ZINC000623581528    0.1800
     11 N11       -11.2628   -1.6112   57.9936 N.am    1  ZINC000623581528   -0.7400
     12 C12       -11.7383   -2.3573   56.9769 C.2     1  ZINC000623581528    0.7100
     13 O13       -11.8278   -3.5638   57.0982 O.2     1  ZINC000623581528   -0.5800
     14 N14       -12.1144   -1.7660   55.8258 N.am    1  ZINC000623581528   -0.7300
     15 C15       -12.6330   -2.5768   54.7212 C.3     1  ZINC000623581528    0.2000
     16 H16       -13.2838   -3.3632   55.1032 H       1  ZINC000623581528    0.1000
     17 C17       -11.4687   -3.1899   53.9144 C.3     1  ZINC000623581528   -0.1300
     18 C18       -11.2466   -2.1412   52.8040 C.3     1  ZINC000623581528   -0.0800
     19 C19       -12.5849   -1.4545   52.6341 C.ar    1  ZINC000623581528   -0.1000
     20 C20       -13.0665   -0.6728   51.5974 C.ar    1  ZINC000623581528   -0.0800
     21 C21       -14.3402   -0.1426   51.6598 C.ar    1  ZINC000623581528   -0.1400
     22 C22       -15.1389   -0.3927   52.7625 C.ar    1  ZINC000623581528    0.0900
     23 F23       -16.3855    0.1241   52.8264 F       1  ZINC000623581528   -0.1400
     24 C24       -14.6582   -1.1733   53.7990 C.ar    1  ZINC000623581528   -0.1200
     25 C25       -13.3839   -1.7053   53.7374 C.ar    1  ZINC000623581528   -0.0900
     26 C26       -10.1440   -1.0510   61.3203 C.ar    1  ZINC000623581528   -0.0800
     27 C27       -10.4030   -0.1940   62.3779 C.ar    1  ZINC000623581528    0.0700
     28 H28        -7.5857    0.6489   63.2217 H       1  ZINC000623581528    0.0800
     29 H29        -8.0566   -0.0421   64.7930 H       1  ZINC000623581528    0.0900
     30 H30        -8.0243   -1.0720   63.3415 H       1  ZINC000623581528    0.0900
     31 H31       -13.6371    0.5377   61.6946 H       1  ZINC000623581528    0.1500
     32 H32       -13.1625   -0.9758   59.8146 H       1  ZINC000623581528    0.1500
     33 H33        -9.7890   -2.4758   59.2100 H       1  ZINC000623581528    0.0800
     34 H34       -11.4153   -3.1797   59.3777 H       1  ZINC000623581528    0.0800
     35 H35       -11.1902   -0.6488   57.8965 H       1  ZINC000623581528    0.4000
     36 H36       -12.0418   -0.8036   55.7284 H       1  ZINC000623581528    0.4000
     37 H37       -10.5785   -3.2915   54.5351 H       1  ZINC000623581528    0.0900
     38 H38       -11.7567   -4.1507   53.4878 H       1  ZINC000623581528    0.0900
     39 H39       -10.4881   -1.4208   53.1104 H       1  ZINC000623581528    0.0800
     40 H40       -10.9517   -2.6301   51.8755 H       1  ZINC000623581528    0.0800
     41 H41       -12.4440   -0.4774   50.7369 H       1  ZINC000623581528    0.1300
     42 H42       -14.7126    0.4666   50.8495 H       1  ZINC000623581528    0.1400
     43 H43       -15.2809   -1.3686   54.6595 H       1  ZINC000623581528    0.1400
     44 H44        -9.1668   -1.4980   61.2124 H       1  ZINC000623581528    0.1400
@<TRIPOS>BOND
     1     1     2    1
     2     1    28    1
     3     1    29    1
     4     1    30    1
     5     2    27    1
     6     2     3   am
     7     3     4    2
     8     3     5    1
     9     5     6    1
    10     6    27   ar
    11     6     7   ar
    12     7     8   ar
    13     7    31    1
    14     8     9   ar
    15     8    32    1
    16     9    10    1
    17     9    26   ar
    18    10    11    1
    19    10    33    1
    20    10    34    1
    21    11    12   am
    22    11    35    1
    23    12    13    2
    24    12    14   am
    25    14    15    1
    26    14    36    1
    27    15    16    1
    28    15    25    1
    29    15    17    1
    30    17    18    1
    31    17    37    1
    32    17    38    1
    33    18    19    1
    34    18    39    1
    35    18    40    1
    36    19    25   ar
    37    19    20   ar
    38    20    21   ar
    39    20    41    1
    40    21    22   ar
    41    21    42    1
    42    22    23    1
    43    22    24   ar
    44    24    25   ar
    45    24    43    1
    46    26    27   ar
    47    26    44    1
@<TRIPOS>SUBSTRUCTURE
     1 ZINC000623581528        1 TEMP              0 ****  ****    0 ROOT


##########                                Name:    ZINC000675319328
##########                DOCK_Rotatable_Bonds:                   7
##########                         Heavy_Atoms:                  26
##########                    Molecular_Weight:             363.475
##########                DOCK_Rotatable_Bonds:                   7
##########                       Formal_Charge:          -0.0200007
##########                     HBond_Acceptors:                   6
##########                        HBond_Donors:                   1
##########                         Heavy_Atoms:                  26
##########                          Grid_Score:          -27.790937
##########                     Grid_vdw_energy:          -26.170214
##########                      Grid_es_energy:           -1.620724
##########           Internal_energy_repulsive:           27.729553

@<TRIPOS>MOLECULE
ZINC000675319328
 56 58 1 0 0
SMALL
USER_CHARGES


@<TRIPOS>ATOM
      1 C1         -7.4129    4.2455   57.4038 C.3     1  ZINC000675319328   -0.1600
      2 C2         -8.4579    3.1474   57.1971 C.3     1  ZINC000675319328    0.1600
      3 H3         -8.0285    2.3454   56.5966 H       1  ZINC000675319328    0.0900
      4 C4         -9.6742    3.7302   56.4745 C.3     1  ZINC000675319328   -0.1200
      5 C5         -9.8248    3.0599   55.1075 C.3     1  ZINC000675319328   -0.1200
      6 H6        -10.6829    3.4651   54.5711 H       1  ZINC000675319328    0.0800
      7 C7         -8.5261    3.2146   54.2700 C.3     1  ZINC000675319328   -0.1500
      8 C8         -8.6052    1.9561   53.3695 C.3     1  ZINC000675319328    0.0500
      9 O9         -9.1693    0.9324   54.2044 O.3     1  ZINC000675319328   -0.3900
     10 C10        -9.9437    1.5280   55.2568 C.3     1  ZINC000675319328    0.0500
     11 N11        -8.8714    2.6156   58.4980 N.am    1  ZINC000675319328   -0.7400
     12 C12        -8.4914    1.3776   58.8716 C.2     1  ZINC000675319328    0.7000
     13 O13        -7.8054    0.7023   58.1289 O.2     1  ZINC000675319328   -0.5900
     14 N14        -8.8717    0.8884   60.0684 N.am    1  ZINC000675319328   -0.6200
     15 C15        -9.7043    1.7321   60.9482 C.3     1  ZINC000675319328    0.1300
     16 C16       -10.8199    0.9115   61.6170 C.3     1  ZINC000675319328   -0.1300
     17 C17       -11.3941   -0.0718   60.6210 C.3     1  ZINC000675319328    0.0700
     18 N18       -10.6836   -1.3439   60.7407 N.3     1  ZINC000675319328   -0.5500
     19 C19       -11.5904   -2.4769   60.5126 C.3     1  ZINC000675319328    0.1000
     20 C20       -11.8596   -2.6157   59.0364 C.ar    1  ZINC000675319328   -0.0900
     21 C21       -11.0269   -3.3925   58.2525 C.ar    1  ZINC000675319328   -0.0900
     22 C22       -11.2729   -3.5205   56.8986 C.ar    1  ZINC000675319328   -0.1500
     23 C23       -12.3540   -2.8709   56.3275 C.ar    1  ZINC000675319328    0.1000
     24 F24       -12.5956   -2.9958   55.0041 F       1  ZINC000675319328   -0.1400
     25 C25       -13.1876   -2.0936   57.1136 C.ar    1  ZINC000675319328   -0.1500
     26 C26       -12.9424   -1.9709   58.4682 C.ar    1  ZINC000675319328   -0.0700
     27 C27        -9.5024   -1.4777   59.9741 C.3     1  ZINC000675319328    0.0500
     28 C28        -8.4527   -0.4479   60.4400 C.3     1  ZINC000675319328    0.1100
     29 H29        -6.5464    3.8303   57.9185 H       1  ZINC000675319328    0.0600
     30 H30        -7.1053    4.6412   56.4358 H       1  ZINC000675319328    0.0700
     31 H31        -7.8423    5.0475   58.0042 H       1  ZINC000675319328    0.0500
     32 H32       -10.5703    3.5500   57.0683 H       1  ZINC000675319328    0.0700
     33 H33        -9.5371    4.8031   56.3400 H       1  ZINC000675319328    0.0900
     34 H34        -8.5496    4.1265   53.6734 H       1  ZINC000675319328    0.0800
     35 H35        -7.6421    3.1868   54.9071 H       1  ZINC000675319328    0.0800
     36 H36        -9.2517    2.1442   52.5124 H       1  ZINC000675319328    0.0600
     37 H37        -7.6087    1.6661   53.0363 H       1  ZINC000675319328    0.0900
     38 H38        -9.5484    1.2217   56.2254 H       1  ZINC000675319328    0.0700
     39 H39       -10.9860    1.2217   55.1679 H       1  ZINC000675319328    0.0700
     40 H40        -9.4186    3.1544   59.0905 H       1  ZINC000675319328    0.3900
     41 H41        -9.0740    2.1733   61.7203 H       1  ZINC000675319328    0.0600
     42 H42       -10.1536    2.5298   60.3567 H       1  ZINC000675319328    0.0900
     43 H43       -10.4100    0.3680   62.4683 H       1  ZINC000675319328    0.0800
     44 H44       -11.6076    1.5820   61.9603 H       1  ZINC000675319328    0.0800
     45 H45       -12.4530   -0.2248   60.8291 H       1  ZINC000675319328    0.0700
     46 H46       -11.2729    0.3197   59.6111 H       1  ZINC000675319328    0.0400
     47 H47       -11.1297   -3.3917   60.8856 H       1  ZINC000675319328    0.0900
     48 H48       -12.5292   -2.3025   61.0383 H       1  ZINC000675319328    0.0400
     49 H49       -10.1838   -3.8992   58.6983 H       1  ZINC000675319328    0.1300
     50 H50       -10.6218   -4.1268   56.2864 H       1  ZINC000675319328    0.1400
     51 H51       -14.0309   -1.5861   56.6692 H       1  ZINC000675319328    0.1400
     52 H52       -13.5926   -1.3649   59.0817 H       1  ZINC000675319328    0.1300
     53 H53        -9.1031   -2.4844   60.0976 H       1  ZINC000675319328    0.0900
     54 H54        -9.7326   -1.3080   58.9223 H       1  ZINC000675319328    0.0300
     55 H55        -7.4944   -0.6689   59.9702 H       1  ZINC000675319328    0.0700
     56 H56        -8.3462   -0.5032   61.5233 H       1  ZINC000675319328    0.0900
@<TRIPOS>BOND
     1     1     2    1
     2     1    29    1
     3     1    30    1
     4     1    31    1
     5     2     3    1
     6     2     4    1
     7     2    11    1
     8     4     5    1
     9     4    32    1
    10     4    33    1
    11     5     6    1
    12     5    10    1
    13     5     7    1
    14     7     8    1
    15     7    34    1
    16     7    35    1
    17     8     9    1
    18     8    36    1
    19     8    37    1
    20     9    10    1
    21    10    38    1
    22    10    39    1
    23    11    12   am
    24    11    40    1
    25    12    13    2
    26    12    14   am
    27    14    28    1
    28    14    15    1
    29    15    16    1
    30    15    41    1
    31    15    42    1
    32    16    17    1
    33    16    43    1
    34    16    44    1
    35    17    18    1
    36    17    45    1
    37    17    46    1
    38    18    19    1
    39    18    27    1
    40    19    20    1
    41    19    47    1
    42    19    48    1
    43    20    26   ar
    44    20    21   ar
    45    21    22   ar
    46    21    49    1
    47    22    23   ar
    48    22    50    1
    49    23    24    1
    50    23    25   ar
    51    25    26   ar
    52    25    51    1
    53    26    52    1
    54    27    28    1
    55    27    53    1
    56    27    54    1
    57    28    55    1
    58    28    56    1
@<TRIPOS>SUBSTRUCTURE
     1 ZINC000675319328        1 TEMP              0 ****  ****    0 ROOT


##########                                Name:    ZINC000001174632
##########                DOCK_Rotatable_Bonds:                   6
##########                         Heavy_Atoms:                  29
##########                    Molecular_Weight:             385.419
##########                DOCK_Rotatable_Bonds:                   6
##########                       Formal_Charge:           0.0400005
##########                     HBond_Acceptors:                   5
##########                        HBond_Donors:                   1
##########                         Heavy_Atoms:                  29
##########                          Grid_Score:          -27.785946
##########                     Grid_vdw_energy:          -27.579010
##########                      Grid_es_energy:           -0.206935
##########           Internal_energy_repulsive:           21.705238

@<TRIPOS>MOLECULE
ZINC000001174632
 48 51 1 0 0
SMALL
USER_CHARGES


@<TRIPOS>ATOM
      1 C1        -13.9692    2.8717   57.6500 C.3     1  ZINC000001174632    0.0400
      2 O2        -13.8501    1.6791   58.4694 O.3     1  ZINC000001174632   -0.3500
      3 C3        -14.9359    0.8854   58.5561 C.2     1  ZINC000001174632    0.5200
      4 O4        -15.9545    1.1825   57.9639 O.2     1  ZINC000001174632   -0.5200
      5 C5        -14.8876   -0.3427   59.3690 C.ar    1  ZINC000001174632   -0.2000
      6 C6        -15.9805   -1.2124   59.3942 C.ar    1  ZINC000001174632   -0.0200
      7 C7        -15.9287   -2.3597   60.1563 C.ar    1  ZINC000001174632   -0.1800
      8 C8        -14.7974   -2.6567   60.8991 C.ar    1  ZINC000001174632   -0.0300
      9 C9        -13.7093   -1.8077   60.8853 C.ar    1  ZINC000001174632   -0.1900
     10 C10       -13.7400   -0.6493   60.1189 C.ar    1  ZINC000001174632    0.2600
     11 N11       -12.6465    0.2065   60.1029 N.pl3   1  ZINC000001174632   -0.6500
     12 C12       -11.4218   -0.2380   60.5303 C.2     1  ZINC000001174632    0.2300
     13 C13       -10.5854   -1.0813   59.8244 C.2     1  ZINC000001174632   -0.1800
     14 C14       -10.8594   -1.6534   58.4875 C.ar    1  ZINC000001174632   -0.0600
     15 C15       -11.0795   -0.8102   57.3973 C.ar    1  ZINC000001174632   -0.0600
     16 C16       -11.3345   -1.3474   56.1530 C.ar    1  ZINC000001174632   -0.1500
     17 C17       -11.3728   -2.7246   55.9840 C.ar    1  ZINC000001174632    0.1400
     18 O18       -11.6246   -3.2501   54.7557 O.3     1  ZINC000001174632   -0.3200
     19 C19       -11.8255   -2.3267   53.6838 C.3     1  ZINC000001174632    0.0300
     20 C20       -11.1544   -3.5668   57.0657 C.ar    1  ZINC000001174632   -0.2100
     21 C21       -10.8926   -3.0376   58.3121 C.ar    1  ZINC000001174632   -0.0500
     22 C22        -9.3779   -1.3123   60.6275 C.2     1  ZINC000001174632    0.4500
     23 O23        -8.4263   -2.0031   60.3199 O.2     1  ZINC000001174632   -0.4100
     24 C24        -9.5402   -0.5395   61.8898 C.ar    1  ZINC000001174632   -0.1600
     25 C25        -8.7361   -0.3808   63.0027 C.ar    1  ZINC000001174632   -0.0500
     26 C26        -9.1608    0.4231   64.0560 C.ar    1  ZINC000001174632   -0.1100
     27 C27       -10.3805    1.0613   63.9937 C.ar    1  ZINC000001174632   -0.0900
     28 C28       -11.1973    0.9090   62.8795 C.ar    1  ZINC000001174632   -0.0800
     29 C29       -10.7826    0.1154   61.8202 C.ar    1  ZINC000001174632   -0.0600
     30 H30       -14.7643    3.5051   58.0436 H       1  ZINC000001174632    0.0700
     31 H31       -13.0269    3.4194   57.6662 H       1  ZINC000001174632    0.1100
     32 H32       -14.2059    2.5863   56.6250 H       1  ZINC000001174632    0.0700
     33 H33       -16.8651   -0.9858   58.8176 H       1  ZINC000001174632    0.1400
     34 H34       -16.7749   -3.0307   60.1749 H       1  ZINC000001174632    0.1300
     35 H35       -14.7669   -3.5582   61.4929 H       1  ZINC000001174632    0.1300
     36 H36       -12.8315   -2.0460   61.4676 H       1  ZINC000001174632    0.1300
     37 H37       -12.7490    1.1186   59.7893 H       1  ZINC000001174632    0.4300
     38 H38       -11.0504    0.2615   57.5282 H       1  ZINC000001174632    0.1300
     39 H39       -11.5049   -0.6956   55.3090 H       1  ZINC000001174632    0.1300
     40 H40       -12.6793   -1.6879   53.9097 H       1  ZINC000001174632    0.0600
     41 H41       -10.9337   -1.7117   53.5622 H       1  ZINC000001174632    0.0600
     42 H42       -12.0165   -2.8760   52.7620 H       1  ZINC000001174632    0.1000
     43 H43       -11.1855   -4.6377   56.9302 H       1  ZINC000001174632    0.1300
     44 H44       -10.7224   -3.6934   59.1531 H       1  ZINC000001174632    0.1300
     45 H45        -7.7800   -0.8802   63.0549 H       1  ZINC000001174632    0.1400
     46 H46        -8.5325    0.5471   64.9257 H       1  ZINC000001174632    0.1400
     47 H47       -10.7038    1.6830   64.8155 H       1  ZINC000001174632    0.1400
     48 H48       -12.1522    1.4118   62.8366 H       1  ZINC000001174632    0.1300
@<TRIPOS>BOND
     1     1     2    1
     2     1    30    1
     3     1    31    1
     4     1    32    1
     5     2     3    1
     6     3     4    2
     7     3     5    1
     8     5    10   ar
     9     5     6   ar
    10     6     7   ar
    11     6    33    1
    12     7     8   ar
    13     7    34    1
    14     8     9   ar
    15     8    35    1
    16     9    10   ar
    17     9    36    1
    18    10    11    1
    19    11    12    1
    20    11    37    1
    21    12    29    1
    22    12    13    2
    23    13    14    1
    24    13    22    1
    25    14    21   ar
    26    14    15   ar
    27    15    16   ar
    28    15    38    1
    29    16    17   ar
    30    16    39    1
    31    17    18    1
    32    17    20   ar
    33    18    19    1
    34    19    40    1
    35    19    41    1
    36    19    42    1
    37    20    21   ar
    38    20    43    1
    39    21    44    1
    40    22    23    2
    41    22    24    1
    42    24    29   ar
    43    24    25   ar
    44    25    26   ar
    45    25    45    1
    46    26    27   ar
    47    26    46    1
    48    27    28   ar
    49    27    47    1
    50    28    29   ar
    51    28    48    1
@<TRIPOS>SUBSTRUCTURE
     1 ZINC000001174632        1 TEMP              0 ****  ****    0 ROOT


##########                                Name:    ZINC000123469372
##########                DOCK_Rotatable_Bonds:                   7
##########                         Heavy_Atoms:                  25
##########                    Molecular_Weight:             341.382
##########                DOCK_Rotatable_Bonds:                   7
##########                       Formal_Charge:          -0.0300001
##########                     HBond_Acceptors:                   5
##########                        HBond_Donors:                   2
##########                         Heavy_Atoms:                  25
##########                          Grid_Score:          -27.776850
##########                     Grid_vdw_energy:          -28.322556
##########                      Grid_es_energy:            0.545705
##########           Internal_energy_repulsive:            6.649370

@<TRIPOS>MOLECULE
ZINC000123469372
 45 47 1 0 0
SMALL
USER_CHARGES


@<TRIPOS>ATOM
      1 C1         -4.6780    5.1808   53.0545 C.3     1  ZINC000123469372   -0.1700
      2 C2         -4.6170    3.9893   52.0965 C.3     1  ZINC000123469372    0.1500
      3 H3         -4.6505    4.3481   51.0678 H       1  ZINC000123469372    0.0900
      4 C4         -3.3161    3.2172   52.3251 C.3     1  ZINC000123469372   -0.1600
      5 C5         -2.3132    3.5707   51.2251 C.3     1  ZINC000123469372    0.1500
      6 H6         -2.4300    4.6189   50.9502 H       1  ZINC000123469372    0.1100
      7 O7         -2.5518    2.7487   50.0807 O.3     1  ZINC000123469372   -0.5500
      8 C8         -0.9121    3.3364   51.7284 C.ar    1  ZINC000123469372   -0.1200
      9 C9         -0.3104    4.2662   52.5557 C.ar    1  ZINC000123469372   -0.1100
     10 C10         0.9748    4.0513   53.0174 C.ar    1  ZINC000123469372   -0.1200
     11 C11         1.6580    2.9065   52.6521 C.ar    1  ZINC000123469372   -0.1200
     12 C12         1.0559    1.9763   51.8256 C.ar    1  ZINC000123469372   -0.1200
     13 C13        -0.2308    2.1891   51.3673 C.ar    1  ZINC000123469372   -0.1100
     14 N14        -5.7591    3.1055   52.3430 N.am    1  ZINC000123469372   -0.7100
     15 C15        -6.2415    2.3345   51.3484 C.2     1  ZINC000123469372    0.5700
     16 O16        -5.7291    2.3734   50.2449 O.2     1  ZINC000123469372   -0.5400
     17 C17        -7.3805    1.4510   51.5949 C.2     1  ZINC000123469372   -0.2200
     18 C18        -8.6034    1.9738   51.8586 C.2     1  ZINC000123469372    0.0000
     19 C19        -9.7095    1.0394   52.1188 C.ar    1  ZINC000123469372   -0.1200
     20 C20       -11.0395    1.4544   52.0697 C.ar    1  ZINC000123469372   -0.0900
     21 C21       -12.0465    0.5422   52.3216 C.ar    1  ZINC000123469372    0.0700
     22 F22       -13.3379    0.9364   52.2757 F       1  ZINC000123469372   -0.1400
     23 C23       -11.7375   -0.7766   52.6208 C.ar    1  ZINC000123469372   -0.1100
     24 C24       -10.4210   -1.1970   52.6720 C.ar    1  ZINC000123469372   -0.1200
     25 C25        -9.4002   -0.2980   52.4224 C.ar    1  ZINC000123469372    0.1300
     26 O26        -8.0995   -0.6795   52.4656 O.3     1  ZINC000123469372   -0.3000
     27 C27        -7.2015   -0.0443   51.5506 C.3     1  ZINC000123469372    0.1100
     28 H28        -3.8282    5.8383   52.8712 H       1  ZINC000123469372    0.0700
     29 H29        -5.6048    5.7307   52.8917 H       1  ZINC000123469372    0.0600
     30 H30        -4.6444    4.8219   54.0832 H       1  ZINC000123469372    0.0600
     31 H31        -2.9000    3.4857   53.2961 H       1  ZINC000123469372    0.0900
     32 H32        -3.5198    2.1466   52.3007 H       1  ZINC000123469372    0.0800
     33 H33        -2.2656    1.8313   50.1889 H       1  ZINC000123469372    0.3700
     34 H34        -0.8442    5.1606   52.8410 H       1  ZINC000123469372    0.1200
     35 H35         1.4451    4.7781   53.6631 H       1  ZINC000123469372    0.1200
     36 H36         2.6623    2.7390   53.0122 H       1  ZINC000123469372    0.1200
     37 H37         1.5899    1.0820   51.5400 H       1  ZINC000123469372    0.1200
     38 H38        -0.7012    1.4623   50.7216 H       1  ZINC000123469372    0.1200
     39 H39        -6.1683    3.0754   53.2219 H       1  ZINC000123469372    0.4000
     40 H40        -8.7604    3.0422   51.8775 H       1  ZINC000123469372    0.1500
     41 H41       -11.2810    2.4810   51.8371 H       1  ZINC000123469372    0.1500
     42 H42       -12.5321   -1.4813   52.8160 H       1  ZINC000123469372    0.1500
     43 H43       -10.1904   -2.2256   52.9065 H       1  ZINC000123469372    0.1500
     44 H44        -7.3981   -0.4075   50.5420 H       1  ZINC000123469372    0.0800
     45 H45        -6.1752   -0.2888   51.8247 H       1  ZINC000123469372    0.1100
@<TRIPOS>BOND
     1     1     2    1
     2     1    28    1
     3     1    29    1
     4     1    30    1
     5     2     3    1
     6     2     4    1
     7     2    14    1
     8     4     5    1
     9     4    31    1
    10     4    32    1
    11     5     6    1
    12     5     7    1
    13     5     8    1
    14     7    33    1
    15     8    13   ar
    16     8     9   ar
    17     9    10   ar
    18     9    34    1
    19    10    11   ar
    20    10    35    1
    21    11    12   ar
    22    11    36    1
    23    12    13   ar
    24    12    37    1
    25    13    38    1
    26    14    15   am
    27    14    39    1
    28    15    16    2
    29    15    17    1
    30    17    27    1
    31    17    18    2
    32    18    19    1
    33    18    40    1
    34    19    25   ar
    35    19    20   ar
    36    20    21   ar
    37    20    41    1
    38    21    22    1
    39    21    23   ar
    40    23    24   ar
    41    23    42    1
    42    24    25   ar
    43    24    43    1
    44    25    26    1
    45    26    27    1
    46    27    44    1
    47    27    45    1
@<TRIPOS>SUBSTRUCTURE
     1 ZINC000123469372        1 TEMP              0 ****  ****    0 ROOT


##########                                Name:    ZINC000949401225
##########                DOCK_Rotatable_Bonds:                   7
##########                         Heavy_Atoms:                  24
##########                    Molecular_Weight:             332.403
##########                DOCK_Rotatable_Bonds:                   7
##########                       Formal_Charge:                0.03
##########                     HBond_Acceptors:                   7
##########                        HBond_Donors:                   1
##########                         Heavy_Atoms:                  24
##########                          Grid_Score:          -27.741026
##########                     Grid_vdw_energy:          -27.291130
##########                      Grid_es_energy:           -0.449895
##########           Internal_energy_repulsive:           10.126407

@<TRIPOS>MOLECULE
ZINC000949401225
 48 50 1 0 0
SMALL
USER_CHARGES


@<TRIPOS>ATOM
      1 C1        -11.6159   -1.7495   53.0870 C.3     1  ZINC000949401225    0.0700
      2 N2        -10.5472   -0.7549   52.9650 N.pl3   1  ZINC000949401225   -0.4500
      3 C3        -10.5996    0.5117   53.4697 C.2     1  ZINC000949401225   -0.0100
      4 C4         -9.4510    1.1455   53.1735 C.2     1  ZINC000949401225   -0.1700
      5 C5         -8.6310    0.1856   52.4265 C.2     1  ZINC000949401225   -0.2400
      6 C6         -7.2815    0.4101   51.8813 C.2     1  ZINC000949401225    0.5900
      7 O7         -6.7193   -0.4754   51.2657 O.2     1  ZINC000949401225   -0.5500
      8 N8         -6.6695    1.5968   52.0647 N.am    1  ZINC000949401225   -0.7300
      9 C9         -5.3264    1.8195   51.5239 C.3     1  ZINC000949401225    0.1200
     10 C10        -5.1068    3.3177   51.3044 C.3     1  ZINC000949401225    0.1200
     11 H11        -5.4447    3.6538   50.3241 H       1  ZINC000949401225    0.1000
     12 C12        -5.6225    4.1868   52.4598 C.3     1  ZINC000949401225   -0.1500
     13 C13        -4.3466    4.9948   52.1851 C.3     1  ZINC000949401225    0.1000
     14 N14        -3.7471    3.7659   51.6406 N.am    1  ZINC000949401225   -0.6400
     15 C15        -2.5008    3.2695   51.5100 C.2     1  ZINC000949401225    0.5500
     16 O16        -2.3312    2.1837   50.9969 O.2     1  ZINC000949401225   -0.5200
     17 C17        -1.3182    4.0637   52.0015 C.3     1  ZINC000949401225   -0.1400
     18 C18        -0.3128    4.2396   50.8617 C.3     1  ZINC000949401225    0.1500
     19 H19        -0.7906    4.0364   49.9032 H       1  ZINC000949401225    0.0900
     20 C20         0.2674    5.6713   50.8768 C.3     1  ZINC000949401225   -0.1200
     21 C21         1.7268    5.4248   50.4291 C.3     1  ZINC000949401225   -0.1600
     22 C22         1.9955    3.9870   50.8153 C.2     1  ZINC000949401225    0.5200
     23 O23         3.0959    3.4834   50.8955 O.2     1  ZINC000949401225   -0.5300
     24 N24         0.8362    3.3474   51.0557 N.am    1  ZINC000949401225   -0.6200
     25 C25         0.7356    1.9433   51.4613 C.3     1  ZINC000949401225    0.0900
     26 C26        -9.3705   -0.9619   52.3437 C.2     1  ZINC000949401225    0.0800
     27 H27       -11.4726   -2.3265   54.0006 H       1  ZINC000949401225    0.0800
     28 H28       -12.5806   -1.2435   53.1243 H       1  ZINC000949401225    0.0900
     29 H29       -11.5895   -2.4185   52.2268 H       1  ZINC000949401225    0.0900
     30 H30       -11.4280    0.9360   54.0175 H       1  ZINC000949401225    0.1700
     31 H31        -9.1853    2.1595   53.4335 H       1  ZINC000949401225    0.1500
     32 H32        -7.1184    2.3034   52.5546 H       1  ZINC000949401225    0.4000
     33 H33        -4.5842    1.4428   52.2277 H       1  ZINC000949401225    0.0700
     34 H34        -5.2254    1.2945   50.5739 H       1  ZINC000949401225    0.0900
     35 H35        -6.5463    4.7214   52.2391 H       1  ZINC000949401225    0.1000
     36 H36        -5.6335    3.6839   53.4268 H       1  ZINC000949401225    0.1000
     37 H37        -4.4812    5.7782   51.4392 H       1  ZINC000949401225    0.0900
     38 H38        -3.8566    5.3535   53.0902 H       1  ZINC000949401225    0.0800
     39 H39        -1.6545    5.0424   52.3436 H       1  ZINC000949401225    0.1000
     40 H40        -0.8425    3.5339   52.8269 H       1  ZINC000949401225    0.1000
     41 H41        -0.2557    6.3116   50.1666 H       1  ZINC000949401225    0.1000
     42 H42         0.2335    6.0952   51.8803 H       1  ZINC000949401225    0.0800
     43 H43         1.8221    5.5545   49.3510 H       1  ZINC000949401225    0.1100
     44 H44         2.4059    6.0948   50.9564 H       1  ZINC000949401225    0.1000
     45 H45         1.7352    1.5373   51.6162 H       1  ZINC000949401225    0.0800
     46 H46         0.1671    1.8729   52.3887 H       1  ZINC000949401225    0.0600
     47 H47         0.2295    1.3751   50.6809 H       1  ZINC000949401225    0.0600
     48 H48        -9.0654   -1.8765   51.8569 H       1  ZINC000949401225    0.1800
@<TRIPOS>BOND
     1     1     2    1
     2     1    27    1
     3     1    28    1
     4     1    29    1
     5     2    26    1
     6     2     3    1
     7     3     4    2
     8     3    30    1
     9     4     5    1
    10     4    31    1
    11     5     6    1
    12     5    26    2
    13     6     7    2
    14     6     8   am
    15     8     9    1
    16     8    32    1
    17     9    10    1
    18     9    33    1
    19     9    34    1
    20    10    11    1
    21    10    14    1
    22    10    12    1
    23    12    13    1
    24    12    35    1
    25    12    36    1
    26    13    14    1
    27    13    37    1
    28    13    38    1
    29    14    15   am
    30    15    16    2
    31    15    17    1
    32    17    18    1
    33    17    39    1
    34    17    40    1
    35    18    19    1
    36    18    24    1
    37    18    20    1
    38    20    21    1
    39    20    41    1
    40    20    42    1
    41    21    22    1
    42    21    43    1
    43    21    44    1
    44    22    23    2
    45    22    24   am
    46    24    25    1
    47    25    45    1
    48    25    46    1
    49    25    47    1
    50    26    48    1
@<TRIPOS>SUBSTRUCTURE
     1 ZINC000949401225        1 TEMP              0 ****  ****    0 ROOT


##########                                Name:    ZINC001085711660
##########                DOCK_Rotatable_Bonds:                   8
##########                         Heavy_Atoms:                  25
##########                    Molecular_Weight:             347.414
##########                DOCK_Rotatable_Bonds:                   8
##########                       Formal_Charge:         -0.00999993
##########                     HBond_Acceptors:                   7
##########                        HBond_Donors:                   0
##########                         Heavy_Atoms:                  25
##########                          Grid_Score:          -27.718630
##########                     Grid_vdw_energy:          -26.996529
##########                      Grid_es_energy:           -0.722102
##########           Internal_energy_repulsive:           12.249515

@<TRIPOS>MOLECULE
ZINC001085711660
 50 52 1 0 0
SMALL
USER_CHARGES


@<TRIPOS>ATOM
      1 C1         -4.1821    2.9865   56.2297 C.3     1  ZINC001085711660    0.0300
      2 O2         -5.2734    2.2468   56.7810 O.3     1  ZINC001085711660   -0.3800
      3 C3         -6.5458    2.5885   56.2276 C.3     1  ZINC001085711660    0.1400
      4 C4         -7.6321    1.8654   56.9812 C.2     1  ZINC001085711660    0.0100
      5 C5         -8.8650    1.5822   56.5059 C.2     1  ZINC001085711660   -0.1900
      6 C6         -9.5545    0.9047   57.5237 C.2     1  ZINC001085711660   -0.1200
      7 C7         -8.6967    0.8076   58.5816 C.2     1  ZINC001085711660   -0.0700
      8 C8         -8.9876    0.1736   59.8715 C.2     1  ZINC001085711660    0.6000
      9 O9         -8.4327   -0.8653   60.1780 O.2     1  ZINC001085711660   -0.5200
     10 N10        -9.8697    0.7414   60.7178 N.am    1  ZINC001085711660   -0.6000
     11 C11       -10.5379    1.9919   60.3489 C.3     1  ZINC001085711660    0.0700
     12 C12       -10.1604    0.1080   62.0065 C.3     1  ZINC001085711660    0.1300
     13 C13        -9.4688    0.8888   63.1258 C.3     1  ZINC001085711660    0.0000
     14 H14        -9.2541    1.9210   62.8493 H       1  ZINC001085711660    0.1000
     15 C15        -8.2636    0.1541   63.7295 C.3     1  ZINC001085711660   -0.1400
     16 C16        -8.7980    0.7226   65.0516 C.3     1  ZINC001085711660    0.0100
     17 N17       -10.1379    0.7579   64.4336 N.3     1  ZINC001085711660   -0.4500
     18 C18       -10.8490    1.9933   64.7888 C.3     1  ZINC001085711660    0.1500
     19 H19       -10.3459    2.8460   64.3328 H       1  ZINC001085711660    0.1000
     20 C20       -10.8558    2.1586   66.3099 C.3     1  ZINC001085711660   -0.1900
     21 C21       -12.2675    1.9189   64.2853 C.2     1  ZINC001085711660    0.2000
     22 N22       -12.9134    0.8253   63.9962 N.2     1  ZINC001085711660   -0.4700
     23 C23       -14.1498    1.1520   63.5803 C.2     1  ZINC001085711660   -0.0400
     24 C24       -14.2529    2.4907   63.6201 C.2     1  ZINC001085711660   -0.0500
     25 C25       -15.4620    3.3072   63.2421 C.3     1  ZINC001085711660   -0.0700
     26 O26       -13.0738    2.9661   64.0668 O.3     1  ZINC001085711660   -0.2000
     27 O27        -7.5327    1.3924   58.2303 O.3     1  ZINC001085711660   -0.1500
     28 H28        -4.1253    2.8047   55.1565 H       1  ZINC001085711660    0.0500
     29 H29        -4.3363    4.0504   56.4104 H       1  ZINC001085711660    0.0500
     30 H30        -3.2525    2.6688   56.7018 H       1  ZINC001085711660    0.0900
     31 H31        -6.7008    3.6642   56.3099 H       1  ZINC001085711660    0.0900
     32 H32        -6.5757    2.2965   55.1778 H       1  ZINC001085711660    0.0700
     33 H33        -9.2478    1.8306   55.5270 H       1  ZINC001085711660    0.1600
     34 H34       -10.5673    0.5324   57.4787 H       1  ZINC001085711660    0.1600
     35 H35       -11.4066    1.7706   59.7290 H       1  ZINC001085711660    0.0600
     36 H36       -10.8585    2.5124   61.2513 H       1  ZINC001085711660    0.0900
     37 H37        -9.8454    2.6232   59.7920 H       1  ZINC001085711660    0.0800
     38 H38       -11.2371    0.1067   62.1759 H       1  ZINC001085711660    0.0900
     39 H39        -9.7925   -0.9180   61.9982 H       1  ZINC001085711660    0.0900
     40 H40        -8.3201   -0.9319   63.6554 H       1  ZINC001085711660    0.1000
     41 H41        -7.2974    0.5586   63.4279 H       1  ZINC001085711660    0.0800
     42 H42        -8.7223    0.0255   65.8861 H       1  ZINC001085711660    0.0900
     43 H43        -8.4046    1.7108   65.2899 H       1  ZINC001085711660    0.0800
     44 H44       -11.2598    1.2577   66.7714 H       1  ZINC001085711660    0.0800
     45 H45        -9.8373    2.3219   66.6621 H       1  ZINC001085711660    0.0800
     46 H46       -11.4750    3.0141   66.5795 H       1  ZINC001085711660    0.0700
     47 H47       -14.9208    0.4624   63.2698 H       1  ZINC001085711660    0.1800
     48 H48       -16.0934    3.4487   64.1192 H       1  ZINC001085711660    0.0800
     49 H49       -15.1412    4.2782   62.8649 H       1  ZINC001085711660    0.0800
     50 H50       -16.0256    2.7851   62.4690 H       1  ZINC001085711660    0.0900
@<TRIPOS>BOND
     1     1     2    1
     2     1    28    1
     3     1    29    1
     4     1    30    1
     5     2     3    1
     6     3     4    1
     7     3    31    1
     8     3    32    1
     9     4    27    1
    10     4     5    2
    11     5     6    1
    12     5    33    1
    13     6     7    2
    14     6    34    1
    15     7     8    1
    16     7    27    1
    17     8     9    2
    18     8    10   am
    19    10    11    1
    20    10    12    1
    21    11    35    1
    22    11    36    1
    23    11    37    1
    24    12    13    1
    25    12    38    1
    26    12    39    1
    27    13    14    1
    28    13    17    1
    29    13    15    1
    30    15    16    1
    31    15    40    1
    32    15    41    1
    33    16    17    1
    34    16    42    1
    35    16    43    1
    36    17    18    1
    37    18    19    1
    38    18    20    1
    39    18    21    1
    40    20    44    1
    41    20    45    1
    42    20    46    1
    43    21    26    1
    44    21    22    2
    45    22    23    1
    46    23    24    2
    47    23    47    1
    48    24    25    1
    49    24    26    1
    50    25    48    1
    51    25    49    1
    52    25    50    1
@<TRIPOS>SUBSTRUCTURE
     1 ZINC001085711660        1 TEMP              0 ****  ****    0 ROOT


##########                                Name:    ZINC000626935317
##########                DOCK_Rotatable_Bonds:                   6
##########                         Heavy_Atoms:                  25
##########                    Molecular_Weight:             366.441
##########                DOCK_Rotatable_Bonds:                   6
##########                       Formal_Charge:          -0.0200006
##########                     HBond_Acceptors:                   9
##########                        HBond_Donors:                   2
##########                         Heavy_Atoms:                  25
##########                          Grid_Score:          -27.718048
##########                     Grid_vdw_energy:          -24.177731
##########                      Grid_es_energy:           -3.540318
##########           Internal_energy_repulsive:           12.390221

@<TRIPOS>MOLECULE
ZINC000626935317
 47 49 1 0 0
SMALL
USER_CHARGES


@<TRIPOS>ATOM
      1 C1        -10.8324   -0.7243   58.9495 C.3     1  ZINC000626935317    0.0900
      2 N2        -10.1698   -0.4721   60.2316 N.am    1  ZINC000626935317   -0.6200
      3 C3         -9.1289   -1.1819   60.7000 C.2     1  ZINC000626935317    0.5200
      4 O4         -8.6138   -2.1192   60.1282 O.2     1  ZINC000626935317   -0.5200
      5 C5         -8.6933   -0.6415   62.0442 C.3     1  ZINC000626935317   -0.1500
      6 C6         -9.3538    0.7544   62.1237 C.3     1  ZINC000626935317   -0.1200
      7 H7         -8.6753    1.5281   61.7646 H       1  ZINC000626935317    0.1200
      8 C8         -9.8147    1.0538   63.5270 C.2     1  ZINC000626935317    0.5300
      9 O9        -10.9946    1.0003   63.8022 O.2     1  ZINC000626935317   -0.5200
     10 N10        -8.9154    1.3812   64.4761 N.am    1  ZINC000626935317   -0.7100
     11 C11        -9.3635    1.6740   65.8398 C.3     1  ZINC000626935317    0.1200
     12 C12        -8.5770    0.9166   66.9227 C.3     1  ZINC000626935317   -0.1600
     13 C13        -7.5995    2.1037   66.9319 C.3     1  ZINC000626935317    0.1200
     14 N14        -6.5032    1.9687   65.9695 N.am    1  ZINC000626935317   -1.1100
     15 S15        -4.9825    1.5780   66.4960 S.o2    1  ZINC000626935317    2.6100
     16 C16        -3.9805    1.5237   64.9848 C.3     1  ZINC000626935317   -0.6700
     17 O17        -4.5995    2.6788   67.3089 O.2     1  ZINC000626935317   -0.9500
     18 O18        -5.1260    0.2758   67.0463 O.2     1  ZINC000626935317   -0.9500
     19 C19        -8.7655    2.9663   66.4205 C.3     1  ZINC000626935317   -0.1600
     20 C20       -10.5533    0.5922   61.1666 C.3     1  ZINC000626935317    0.2000
     21 H21       -11.4423    0.2948   61.7229 H       1  ZINC000626935317    0.1100
     22 C22       -10.8083    1.8802   60.4272 C.ar    1  ZINC000626935317   -0.1600
     23 C23       -12.0822    2.4255   60.3858 C.ar    1  ZINC000626935317   -0.0500
     24 C24       -12.2699    3.6125   59.6938 C.ar    1  ZINC000626935317   -0.1700
     25 C25       -11.1887    4.2082   59.0730 C.ar    1  ZINC000626935317    0.1000
     26 N26        -9.9903    3.6608   59.1333 N.ar    1  ZINC000626935317   -0.4800
     27 C27        -9.7739    2.5360   59.7863 C.ar    1  ZINC000626935317    0.1200
     28 H28       -10.3433   -0.1437   58.1674 H       1  ZINC000626935317    0.0600
     29 H29       -10.7666   -1.7855   58.7092 H       1  ZINC000626935317    0.0800
     30 H30       -11.8801   -0.4316   59.0182 H       1  ZINC000626935317    0.0700
     31 H31        -9.0560   -1.2815   62.8484 H       1  ZINC000626935317    0.1100
     32 H32        -7.6078   -0.5527   62.0860 H       1  ZINC000626935317    0.1200
     33 H33        -7.9715    1.4228   64.2562 H       1  ZINC000626935317    0.4000
     34 H34       -10.4452    1.6035   65.9542 H       1  ZINC000626935317    0.1100
     35 H35        -9.1257    0.7956   67.8566 H       1  ZINC000626935317    0.1100
     36 H36        -8.1315   -0.0132   66.5688 H       1  ZINC000626935317    0.0800
     37 H37        -7.2558    2.3786   67.9291 H       1  ZINC000626935317    0.1100
     38 H38        -6.6681    2.1083   65.0238 H       1  ZINC000626935317    0.4100
     39 H39        -4.0045    2.4984   64.4976 H       1  ZINC000626935317    0.1300
     40 H40        -2.9515    1.2703   65.2401 H       1  ZINC000626935317    0.1300
     41 H41        -4.3833    0.7695   64.3087 H       1  ZINC000626935317    0.1300
     42 H42        -8.4721    3.6913   65.6613 H       1  ZINC000626935317    0.0900
     43 H43        -9.3657    3.4056   67.2172 H       1  ZINC000626935317    0.1100
     44 H44       -12.9088    1.9372   60.8804 H       1  ZINC000626935317    0.1400
     45 H45       -13.2489    4.0655   59.6407 H       1  ZINC000626935317    0.1400
     46 H46       -11.3266    5.1326   58.5318 H       1  ZINC000626935317    0.1600
     47 H47        -8.7786    2.1176   59.8137 H       1  ZINC000626935317    0.1500
@<TRIPOS>BOND
     1     1     2    1
     2     1    28    1
     3     1    29    1
     4     1    30    1
     5     2    20    1
     6     2     3   am
     7     3     4    2
     8     3     5    1
     9     5     6    1
    10     5    31    1
    11     5    32    1
    12     6     7    1
    13     6     8    1
    14     6    20    1
    15     8     9    2
    16     8    10   am
    17    10    11    1
    18    10    33    1
    19    11    19    1
    20    11    12    1
    21    11    34    1
    22    12    13    1
    23    12    35    1
    24    12    36    1
    25    13    14    1
    26    13    19    1
    27    13    37    1
    28    14    15   am
    29    14    38    1
    30    15    16    1
    31    15    17    2
    32    15    18    2
    33    16    39    1
    34    16    40    1
    35    16    41    1
    36    19    42    1
    37    19    43    1
    38    20    21    1
    39    20    22    1
    40    22    27   ar
    41    22    23   ar
    42    23    24   ar
    43    23    44    1
    44    24    25   ar
    45    24    45    1
    46    25    26   ar
    47    25    46    1
    48    26    27   ar
    49    27    47    1
@<TRIPOS>SUBSTRUCTURE
     1 ZINC000626935317        1 TEMP              0 ****  ****    0 ROOT


##########                                Name:    ZINC000179743483
##########                DOCK_Rotatable_Bonds:                   5
##########                         Heavy_Atoms:                  23
##########                    Molecular_Weight:             393.347
##########                DOCK_Rotatable_Bonds:                   5
##########                       Formal_Charge:          -0.0199999
##########                     HBond_Acceptors:                   4
##########                        HBond_Donors:                   0
##########                         Heavy_Atoms:                  23
##########                          Grid_Score:          -27.712172
##########                     Grid_vdw_energy:          -27.490303
##########                      Grid_es_energy:           -0.221869
##########           Internal_energy_repulsive:           25.172750

@<TRIPOS>MOLECULE
ZINC000179743483
 44 46 1 0 0
SMALL
USER_CHARGES


@<TRIPOS>ATOM
      1 C1        -14.2213   -4.1659   56.1088 C.3     1  ZINC000179743483   -0.1400
      2 C2        -14.1268   -2.8064   55.4133 C.3     1  ZINC000179743483   -0.1000
      3 H3        -14.8729   -2.7512   54.6205 H       1  ZINC000179743483    0.1000
      4 C4        -14.3820   -1.6936   56.4320 C.3     1  ZINC000179743483   -0.0700
      5 C5        -13.2129   -1.6011   57.3783 C.ar    1  ZINC000179743483   -0.0600
      6 C6        -13.2126   -2.3350   58.5500 C.ar    1  ZINC000179743483   -0.1100
      7 C7        -12.1403   -2.2508   59.4181 C.ar    1  ZINC000179743483   -0.0900
      8 C8        -11.0674   -1.4321   59.1145 C.ar    1  ZINC000179743483   -0.0900
      9 Br9        -9.5999   -1.3170   60.3014 Br      1  ZINC000179743483   -0.0500
     10 C10       -11.0682   -0.6981   57.9420 C.ar    1  ZINC000179743483   -0.0900
     11 C11       -12.1385   -0.7869   57.0720 C.ar    1  ZINC000179743483   -0.1100
     12 C12       -12.7512   -2.6395   54.8210 C.2     1  ZINC000179743483    0.5200
     13 O13       -11.8258   -3.3013   55.2411 O.2     1  ZINC000179743483   -0.5300
     14 N14       -12.5492   -1.7548   53.8245 N.am    1  ZINC000179743483   -0.6100
     15 C15       -13.6604   -0.9460   53.3051 C.3     1  ZINC000179743483    0.1000
     16 C16       -13.2607    0.5320   53.3569 C.3     1  ZINC000179743483   -0.1400
     17 C17       -11.9393    0.7256   52.6096 C.3     1  ZINC000179743483   -0.1100
     18 C18       -10.8416   -0.0958   53.2896 C.3     1  ZINC000179743483   -0.0200
     19 H19       -10.7434    0.2181   54.3289 H       1  ZINC000179743483    0.0900
     20 C20        -9.5339    0.1214   52.5730 C.2     1  ZINC000179743483    0.0500
     21 N21        -8.9566   -0.7451   51.8109 N.2     1  ZINC000179743483   -0.4700
     22 C22        -7.8131   -0.3925   51.2588 C.2     1  ZINC000179743483    0.0400
     23 C23        -7.4031    0.8401   51.5727 C.2     1  ZINC000179743483   -0.2600
     24 S24        -8.6039    1.5542   52.6463 S.3     1  ZINC000179743483    0.1300
     25 C25       -11.2126   -1.5765   53.2412 C.3     1  ZINC000179743483    0.1200
     26 H26       -13.4260   -4.2511   56.8493 H       1  ZINC000179743483    0.0700
     27 H27       -15.1888   -4.2549   56.6027 H       1  ZINC000179743483    0.0700
     28 H28       -14.1161   -4.9602   55.3698 H       1  ZINC000179743483    0.0600
     29 H29       -14.5032   -0.7443   55.9103 H       1  ZINC000179743483    0.0900
     30 H30       -15.2883   -1.9172   56.9947 H       1  ZINC000179743483    0.0800
     31 H31       -14.0504   -2.9737   58.7871 H       1  ZINC000179743483    0.1300
     32 H32       -12.1403   -2.8238   60.3335 H       1  ZINC000179743483    0.1300
     33 H33       -10.2308   -0.0588   57.7045 H       1  ZINC000179743483    0.1300
     34 H34       -12.1392   -0.2138   56.1565 H       1  ZINC000179743483    0.1300
     35 H35       -13.8697   -1.2320   52.2743 H       1  ZINC000179743483    0.0700
     36 H36       -14.5471   -1.1065   53.9184 H       1  ZINC000179743483    0.0900
     37 H37       -14.0367    1.1354   52.8860 H       1  ZINC000179743483    0.0800
     38 H38       -13.1397    0.8399   54.3955 H       1  ZINC000179743483    0.0700
     39 H39       -12.0540    0.3942   51.5775 H       1  ZINC000179743483    0.0800
     40 H40       -11.6651    1.7804   52.6238 H       1  ZINC000179743483    0.0700
     41 H41        -7.2532   -1.0462   50.6065 H       1  ZINC000179743483    0.1800
     42 H42        -6.4974    1.3158   51.2263 H       1  ZINC000179743483    0.1800
     43 H43       -10.4842   -2.1545   53.8100 H       1  ZINC000179743483    0.0900
     44 H44       -11.2239   -1.9167   52.2057 H       1  ZINC000179743483    0.0800
@<TRIPOS>BOND
     1     1     2    1
     2     1    26    1
     3     1    27    1
     4     1    28    1
     5     2     3    1
     6     2     4    1
     7     2    12    1
     8     4     5    1
     9     4    29    1
    10     4    30    1
    11     5    11   ar
    12     5     6   ar
    13     6     7   ar
    14     6    31    1
    15     7     8   ar
    16     7    32    1
    17     8     9    1
    18     8    10   ar
    19    10    11   ar
    20    10    33    1
    21    11    34    1
    22    12    13    2
    23    12    14   am
    24    14    25    1
    25    14    15    1
    26    15    16    1
    27    15    35    1
    28    15    36    1
    29    16    17    1
    30    16    37    1
    31    16    38    1
    32    17    18    1
    33    17    39    1
    34    17    40    1
    35    18    19    1
    36    18    20    1
    37    18    25    1
    38    20    24    1
    39    20    21    2
    40    21    22    1
    41    22    23    2
    42    22    41    1
    43    23    24    1
    44    23    42    1
    45    25    43    1
    46    25    44    1
@<TRIPOS>SUBSTRUCTURE
     1 ZINC000179743483        1 TEMP              0 ****  ****    0 ROOT


##########                                Name:    ZINC001176298561
##########                DOCK_Rotatable_Bonds:                   6
##########                         Heavy_Atoms:                  23
##########                    Molecular_Weight:             337.781
##########                DOCK_Rotatable_Bonds:                   6
##########                       Formal_Charge:          -0.0100003
##########                     HBond_Acceptors:                   7
##########                        HBond_Donors:                   2
##########                         Heavy_Atoms:                  23
##########                          Grid_Score:          -27.710810
##########                     Grid_vdw_energy:          -24.825190
##########                      Grid_es_energy:           -2.885620
##########           Internal_energy_repulsive:           15.463769

@<TRIPOS>MOLECULE
ZINC001176298561
 40 41 1 0 0
SMALL
USER_CHARGES


@<TRIPOS>ATOM
      1 C1         -3.7227    3.0395   53.7256 C.3     1  ZINC001176298561   -0.1700
      2 C2         -5.0193    3.3703   52.9837 C.3     1  ZINC001176298561    0.1100
      3 N3         -4.7639    3.3945   51.5414 N.am    1  ZINC001176298561   -0.6100
      4 C4         -3.5119    3.9562   51.0284 C.3     1  ZINC001176298561    0.0900
      5 C5         -2.5174    2.8247   50.7605 C.3     1  ZINC001176298561   -0.1800
      6 C6         -5.6808    2.9001   50.6864 C.2     1  ZINC001176298561    0.5600
      7 O7         -5.4691    2.9201   49.4896 O.2     1  ZINC001176298561   -0.5300
      8 C8         -6.9446    2.3330   51.2041 C.ar    1  ZINC001176298561   -0.0600
      9 C9         -6.9624    1.0510   51.7553 C.ar    1  ZINC001176298561   -0.1900
     10 C10        -8.1454    0.5230   52.2386 C.ar    1  ZINC001176298561    0.1400
     11 F11        -8.1609   -0.7180   52.7723 F       1  ZINC001176298561   -0.1300
     12 C12        -9.3136    1.2627   52.1777 C.ar    1  ZINC001176298561   -0.1800
     13 C13        -9.3043    2.5404   51.6302 C.ar    1  ZINC001176298561    0.2400
     14 N14       -10.4856    3.2834   51.5712 N.pl3   1  ZINC001176298561   -0.6700
     15 C15       -11.4901    2.9301   50.6622 C.2     1  ZINC001176298561    0.0400
     16 C16       -12.3172    1.8715   50.9217 C.2     1  ZINC001176298561   -0.0300
     17 C17       -13.3161    1.5390   49.9943 C.2     1  ZINC001176298561   -0.1300
     18 Cl18      -14.3763    0.1996   50.3039 Cl      1  ZINC001176298561   -0.0400
     19 C19       -13.4536    2.2620   48.8587 C.2     1  ZINC001176298561    0.1400
     20 N20       -12.6316    3.3151   48.5994 N.am    1  ZINC001176298561   -0.6000
     21 C21       -11.6654    3.6656   49.4695 C.2     1  ZINC001176298561    0.5100
     22 O22       -10.9360    4.6129   49.2232 O.2     1  ZINC001176298561   -0.5200
     23 C23        -8.1211    3.0801   51.1482 C.ar    1  ZINC001176298561   -0.1300
     24 H24        -3.9127    3.0214   54.7988 H       1  ZINC001176298561    0.0700
     25 H25        -3.3592    2.0634   53.4045 H       1  ZINC001176298561    0.0600
     26 H26        -2.9725    3.7981   53.5022 H       1  ZINC001176298561    0.0600
     27 H27        -5.7694    2.6117   53.2072 H       1  ZINC001176298561    0.0800
     28 H28        -5.3828    4.3464   53.3049 H       1  ZINC001176298561    0.0900
     29 H29        -3.7080    4.4946   50.1012 H       1  ZINC001176298561    0.0900
     30 H30        -3.0925    4.6417   51.7649 H       1  ZINC001176298561    0.0800
     31 H31        -3.0427    1.9748   50.3250 H       1  ZINC001176298561    0.0700
     32 H32        -1.7504    3.1715   50.0679 H       1  ZINC001176298561    0.0700
     33 H33        -2.0504    2.5219   51.6976 H       1  ZINC001176298561    0.0600
     34 H34        -6.0525    0.4713   51.8038 H       1  ZINC001176298561    0.1500
     35 H35       -10.2352    0.8458   52.5563 H       1  ZINC001176298561    0.1300
     36 H36       -10.6100    4.0442   52.1600 H       1  ZINC001176298561    0.4200
     37 H37       -12.2024    1.2984   51.8298 H       1  ZINC001176298561    0.1500
     38 H38       -14.2248    2.0000   48.1495 H       1  ZINC001176298561    0.1800
     39 H39       -12.7454    3.8214   47.7797 H       1  ZINC001176298561    0.4300
     40 H40        -8.1124    4.0727   50.7226 H       1  ZINC001176298561    0.1400
@<TRIPOS>BOND
     1     1     2    1
     2     1    24    1
     3     1    25    1
     4     1    26    1
     5     2     3    1
     6     2    27    1
     7     2    28    1
     8     3     4    1
     9     3     6   am
    10     4     5    1
    11     4    29    1
    12     4    30    1
    13     5    31    1
    14     5    32    1
    15     5    33    1
    16     6     7    2
    17     6     8    1
    18     8    23   ar
    19     8     9   ar
    20     9    10   ar
    21     9    34    1
    22    10    11    1
    23    10    12   ar
    24    12    13   ar
    25    12    35    1
    26    13    14    1
    27    13    23   ar
    28    14    15    1
    29    14    36    1
    30    15    21    1
    31    15    16    2
    32    16    17    1
    33    16    37    1
    34    17    18    1
    35    17    19    2
    36    19    20    1
    37    19    38    1
    38    20    21   am
    39    20    39    1
    40    21    22    2
    41    23    40    1
@<TRIPOS>SUBSTRUCTURE
     1 ZINC001176298561        1 TEMP              0 ****  ****    0 ROOT


##########                                Name:    ZINC000281092425
##########                DOCK_Rotatable_Bonds:                   8
##########                         Heavy_Atoms:                  23
##########                    Molecular_Weight:             332.304
##########                DOCK_Rotatable_Bonds:                   8
##########                       Formal_Charge:         2.98023e-08
##########                     HBond_Acceptors:                   9
##########                        HBond_Donors:                   2
##########                         Heavy_Atoms:                  23
##########                          Grid_Score:          -27.707857
##########                     Grid_vdw_energy:          -26.463114
##########                      Grid_es_energy:           -1.244743
##########           Internal_energy_repulsive:           22.227707

@<TRIPOS>MOLECULE
ZINC000281092425
 41 42 1 0 0
SMALL
USER_CHARGES


@<TRIPOS>ATOM
      1 O1        -13.6730    1.6752   51.9164 O.2     1  ZINC000281092425   -0.1800
      2 N2        -12.9687    0.6816   51.9358 N.pl3   1  ZINC000281092425    0.0400
      3 O3        -13.4764   -0.4253   51.9157 O.2     1  ZINC000281092425   -0.1500
      4 C4        -11.4956    0.8195   51.9777 C.ar    1  ZINC000281092425   -0.1200
      5 C5        -10.9206    2.0756   52.0005 C.ar    1  ZINC000281092425    0.0200
      6 C6         -9.5460    2.2085   52.0396 C.ar    1  ZINC000281092425   -0.2200
      7 C7         -8.7383    1.0782   52.0566 C.ar    1  ZINC000281092425    0.3000
      8 N8         -7.3487    1.2121   52.0965 N.pl3   1  ZINC000281092425   -0.7200
      9 C9         -6.6301    1.7414   50.9347 C.3     1  ZINC000281092425    0.1200
     10 C10        -5.1706    2.0016   51.3128 C.3     1  ZINC000281092425   -0.0900
     11 H11        -4.6958    1.0624   51.5965 H       1  ZINC000281092425    0.0900
     12 C12        -4.4333    2.6047   50.1155 C.3     1  ZINC000281092425    0.0800
     13 O13        -3.2797    1.8151   49.8195 O.3     1  ZINC000281092425   -0.5700
     14 C14        -5.1149    2.9771   52.4902 C.3     1  ZINC000281092425   -0.1100
     15 H15        -5.6281    2.5640   53.3587 H       1  ZINC000281092425    0.0900
     16 C16        -3.6456    3.3409   52.8377 C.3     1  ZINC000281092425   -0.1600
     17 C17        -3.8288    4.7531   53.4484 C.3     1  ZINC000281092425    0.0500
     18 O18        -4.8799    5.3604   52.6805 O.3     1  ZINC000281092425   -0.3900
     19 C19        -5.7125    4.3456   52.0985 C.3     1  ZINC000281092425    0.0700
     20 C20        -9.3145   -0.1847   52.0341 C.ar    1  ZINC000281092425   -0.2800
     21 C21       -10.6939   -0.3135   51.9998 C.ar    1  ZINC000281092425    0.2300
     22 O22       -11.2611   -1.5483   51.9782 O.3     1  ZINC000281092425   -0.2900
     23 C23       -11.2240   -2.3006   53.1926 C.3     1  ZINC000281092425    0.4100
     24 F24       -11.8670   -1.5819   54.2062 F       1  ZINC000281092425   -0.1900
     25 F25       -11.8753   -3.5242   53.0032 F       1  ZINC000281092425   -0.1900
     26 H26       -11.5470    2.9554   51.9874 H       1  ZINC000281092425    0.1600
     27 H27        -9.0990    3.1915   52.0567 H       1  ZINC000281092425    0.1500
     28 H28        -6.8593    0.9548   52.8934 H       1  ZINC000281092425    0.4100
     29 H29        -6.6711    1.0171   50.1213 H       1  ZINC000281092425    0.0800
     30 H30        -7.0944    2.6742   50.6144 H       1  ZINC000281092425    0.0800
     31 H31        -5.0959    2.6186   49.2501 H       1  ZINC000281092425    0.0500
     32 H32        -4.1254    3.6229   50.3537 H       1  ZINC000281092425    0.0500
     33 H33        -3.4835    0.9319   49.4826 H       1  ZINC000281092425    0.3800
     34 H34        -3.2316    2.6471   53.5694 H       1  ZINC000281092425    0.0800
     35 H35        -3.0274    3.3780   51.9407 H       1  ZINC000281092425    0.0800
     36 H36        -4.1209    4.6773   54.4958 H       1  ZINC000281092425    0.0600
     37 H37        -2.9085    5.3291   53.3522 H       1  ZINC000281092425    0.0900
     38 H38        -5.7162    4.4477   51.0133 H       1  ZINC000281092425    0.0800
     39 H39        -6.7285    4.4357   52.4830 H       1  ZINC000281092425    0.0700
     40 H40        -8.6891   -1.0651   52.0473 H       1  ZINC000281092425    0.1500
     41 H41       -10.1872   -2.4810   53.4767 H       1  ZINC000281092425    0.1900
@<TRIPOS>BOND
     1     1     2    2
     2     2     3    2
     3     2     4    1
     4     4    21   ar
     5     4     5   ar
     6     5     6   ar
     7     5    26    1
     8     6     7   ar
     9     6    27    1
    10     7     8    1
    11     7    20   ar
    12     8     9    1
    13     8    28    1
    14     9    10    1
    15     9    29    1
    16     9    30    1
    17    10    11    1
    18    10    12    1
    19    10    14    1
    20    12    13    1
    21    12    31    1
    22    12    32    1
    23    13    33    1
    24    14    15    1
    25    14    19    1
    26    14    16    1
    27    16    17    1
    28    16    34    1
    29    16    35    1
    30    17    18    1
    31    17    36    1
    32    17    37    1
    33    18    19    1
    34    19    38    1
    35    19    39    1
    36    20    21   ar
    37    20    40    1
    38    21    22    1
    39    22    23    1
    40    23    24    1
    41    23    25    1
    42    23    41    1
@<TRIPOS>SUBSTRUCTURE
     1 ZINC000281092425        1 TEMP              0 ****  ****    0 ROOT


##########                                Name:    ZINC001436455587
##########                DOCK_Rotatable_Bonds:                   9
##########                         Heavy_Atoms:                  21
##########                    Molecular_Weight:             378.693
##########                DOCK_Rotatable_Bonds:                   9
##########                       Formal_Charge:          -0.0200001
##########                     HBond_Acceptors:                   5
##########                        HBond_Donors:                   1
##########                         Heavy_Atoms:                  21
##########                          Grid_Score:          -27.695980
##########                     Grid_vdw_energy:          -28.134205
##########                      Grid_es_energy:            0.438225
##########           Internal_energy_repulsive:           10.553509

@<TRIPOS>MOLECULE
ZINC001436455587
 42 42 1 0 0
SMALL
USER_CHARGES


@<TRIPOS>ATOM
      1 C1        -12.0138    2.2599   66.3521 C.3     1  ZINC001436455587   -0.1500
      2 C2        -10.5609    1.7815   66.3812 C.3     1  ZINC001436455587   -0.1300
      3 C3        -10.1480    1.3194   64.9822 C.3     1  ZINC001436455587   -0.1400
      4 C4         -8.6883    0.8616   65.0065 C.3     1  ZINC001436455587    0.0800
      5 H5         -8.0961    1.5669   65.5895 H       1  ZINC001436455587    0.0700
      6 C6         -8.1484    0.8027   63.5761 C.3     1  ZINC001436455587    0.1200
      7 N7         -8.8629   -0.2337   62.8267 N.am    1  ZINC001436455587   -0.7200
      8 C8         -9.5686    0.0957   61.7267 C.2     1  ZINC001436455587    0.5200
      9 O9         -9.6109    1.2497   61.3564 O.2     1  ZINC001436455587   -0.5100
     10 C10       -10.3051   -0.9702   60.9568 C.3     1  ZINC001436455587    0.0600
     11 H11       -10.7008   -1.7118   61.6509 H       1  ZINC001436455587    0.1000
     12 C12        -9.3441   -1.6487   59.9787 C.3     1  ZINC001436455587   -0.1800
     13 O13       -11.3823   -0.3749   60.2307 O.3     1  ZINC001436455587   -0.2700
     14 C14       -12.5268   -1.1000   60.1194 C.ar    1  ZINC001436455587    0.1600
     15 C15       -12.6898   -1.9819   59.0618 C.ar    1  ZINC001436455587   -0.2000
     16 C16       -13.8536   -2.7185   58.9505 C.ar    1  ZINC001436455587   -0.0500
     17 C17       -14.8564   -2.5766   59.8929 C.ar    1  ZINC001436455587   -0.0700
     18 Cl18      -16.3177   -3.5029   59.7501 Cl      1  ZINC001436455587   -0.0600
     19 C19       -14.6961   -1.6975   60.9496 C.ar    1  ZINC001436455587   -0.0400
     20 C20       -13.5315   -0.9628   61.0675 C.ar    1  ZINC001436455587   -0.1200
     21 Br21      -13.3125    0.2384   62.5115 Br      1  ZINC001436455587   -0.0100
     22 O22        -8.6055   -0.4353   65.6006 O.3     1  ZINC001436455587   -0.3800
     23 C23        -7.9985   -0.4443   66.8944 C.3     1  ZINC001436455587    0.0200
     24 H24       -12.1091    3.0902   65.6523 H       1  ZINC001436455587    0.0500
     25 H25       -12.6597    1.4412   66.0345 H       1  ZINC001436455587    0.0600
     26 H26       -12.3080    2.5891   67.3487 H       1  ZINC001436455587    0.0600
     27 H27        -9.9150    2.6001   66.6987 H       1  ZINC001436455587    0.0600
     28 H28       -10.4657    0.9511   67.0809 H       1  ZINC001436455587    0.0700
     29 H29       -10.7836    0.4903   64.6712 H       1  ZINC001436455587    0.0800
     30 H30       -10.2583    2.1452   64.2796 H       1  ZINC001436455587    0.0800
     31 H31        -8.2961    1.7682   63.0919 H       1  ZINC001436455587    0.0800
     32 H32        -7.0846    0.5666   63.5987 H       1  ZINC001436455587    0.0800
     33 H33        -8.8282   -1.1569   63.1222 H       1  ZINC001436455587    0.4000
     34 H34        -9.8768   -2.4197   59.4218 H       1  ZINC001436455587    0.0800
     35 H35        -8.9484   -0.9072   59.2846 H       1  ZINC001436455587    0.0800
     36 H36        -8.5225   -2.1029   60.5325 H       1  ZINC001436455587    0.0800
     37 H37       -11.9077   -2.0927   58.3254 H       1  ZINC001436455587    0.1500
     38 H38       -13.9807   -3.4054   58.1269 H       1  ZINC001436455587    0.1400
     39 H39       -15.4799   -1.5883   61.6845 H       1  ZINC001436455587    0.1500
     40 H40        -8.6245    0.1106   67.5932 H       1  ZINC001436455587    0.0500
     41 H41        -7.8930   -1.4730   67.2390 H       1  ZINC001436455587    0.0900
     42 H42        -7.0153    0.0226   66.8375 H       1  ZINC001436455587    0.0400
@<TRIPOS>BOND
     1     1     2    1
     2     1    24    1
     3     1    25    1
     4     1    26    1
     5     2     3    1
     6     2    27    1
     7     2    28    1
     8     3     4    1
     9     3    29    1
    10     3    30    1
    11     4     5    1
    12     4     6    1
    13     4    22    1
    14     6     7    1
    15     6    31    1
    16     6    32    1
    17     7     8   am
    18     7    33    1
    19     8     9    2
    20     8    10    1
    21    10    11    1
    22    10    12    1
    23    10    13    1
    24    12    34    1
    25    12    35    1
    26    12    36    1
    27    13    14    1
    28    14    20   ar
    29    14    15   ar
    30    15    16   ar
    31    15    37    1
    32    16    17   ar
    33    16    38    1
    34    17    18    1
    35    17    19   ar
    36    19    20   ar
    37    19    39    1
    38    20    21    1
    39    22    23    1
    40    23    40    1
    41    23    41    1
    42    23    42    1
@<TRIPOS>SUBSTRUCTURE
     1 ZINC001436455587        1 TEMP              0 ****  ****    0 ROOT


##########                                Name:    ZINC000836820897
##########                DOCK_Rotatable_Bonds:                   5
##########                         Heavy_Atoms:                  22
##########                    Molecular_Weight:             330.355
##########                DOCK_Rotatable_Bonds:                   5
##########                       Formal_Charge:          -0.0200003
##########                     HBond_Acceptors:                   8
##########                        HBond_Donors:                   1
##########                         Heavy_Atoms:                  22
##########                          Grid_Score:          -27.674480
##########                     Grid_vdw_energy:          -24.249905
##########                      Grid_es_energy:           -3.424576
##########           Internal_energy_repulsive:            8.238637

@<TRIPOS>MOLECULE
ZINC000836820897
 38 40 1 0 0
SMALL
USER_CHARGES


@<TRIPOS>ATOM
      1 O1         -9.0754   -1.3083   61.3959 O.2     1  ZINC000836820897   -0.5200
      2 C2         -9.4189   -0.1557   61.5734 C.2     1  ZINC000836820897    0.5800
      3 C3         -9.7889    0.3046   62.9275 C.ar    1  ZINC000836820897   -0.1600
      4 C4        -11.0731    0.7937   63.1746 C.ar    1  ZINC000836820897   -0.0100
      5 C5        -11.4133    1.2214   64.4403 C.ar    1  ZINC000836820897   -0.1700
      6 C6        -10.4830    1.1667   65.4666 C.ar    1  ZINC000836820897    0.2200
      7 F7        -10.8215    1.5872   66.7051 F       1  ZINC000836820897   -0.1100
      8 C8         -9.2062    0.6814   65.2267 C.ar    1  ZINC000836820897   -0.7200
      9 S9         -8.0303    0.6143   66.5372 S.o2    1  ZINC000836820897    2.7000
     10 O10        -8.2718    1.7534   67.3517 O.2     1  ZINC000836820897   -0.9400
     11 O11        -8.0589   -0.7166   67.0342 O.2     1  ZINC000836820897   -0.9400
     12 N12        -6.5329    0.8300   65.8637 N.am    1  ZINC000836820897   -1.0800
     13 C13        -6.2297    2.0621   65.1315 C.3     1  ZINC000836820897    0.0700
     14 C14        -5.8009    3.2824   65.9490 C.3     1  ZINC000836820897   -0.1800
     15 C15        -4.7724    2.5275   65.1047 C.3     1  ZINC000836820897   -0.1900
     16 C16        -8.8571    0.2466   63.9663 C.ar    1  ZINC000836820897    0.0600
     17 N17        -9.4567    0.7037   60.5358 N.am    1  ZINC000836820897   -0.6200
     18 C18        -9.8396    2.1211   60.6107 C.3     1  ZINC000836820897    0.0900
     19 C19        -9.7077    2.7072   59.1891 C.3     1  ZINC000836820897   -0.1600
     20 C20        -8.7161    1.7317   58.5017 C.3     1  ZINC000836820897    0.0800
     21 H21        -7.6849    1.9860   58.7465 H       1  ZINC000836820897    0.1100
     22 F22        -8.9101    1.7132   57.1164 F       1  ZINC000836820897   -0.1900
     23 C23        -9.1148    0.3796   59.1388 C.3     1  ZINC000836820897    0.0800
     24 H24       -11.7985    0.8371   62.3757 H       1  ZINC000836820897    0.1500
     25 H25       -12.4063    1.6003   64.6325 H       1  ZINC000836820897    0.1600
     26 H26        -5.8566    0.1405   65.9539 H       1  ZINC000836820897    0.4200
     27 H27        -6.8310    2.2393   64.2398 H       1  ZINC000836820897    0.1400
     28 H28        -6.1205    4.2626   65.5953 H       1  ZINC000836820897    0.1100
     29 H29        -5.7446    3.1683   67.0315 H       1  ZINC000836820897    0.1000
     30 H30        -4.0392    1.9168   65.6316 H       1  ZINC000836820897    0.1000
     31 H31        -4.4151    3.0110   64.1954 H       1  ZINC000836820897    0.1000
     32 H32        -7.8626   -0.1314   63.7806 H       1  ZINC000836820897    0.1600
     33 H33       -10.8705    2.2091   60.9538 H       1  ZINC000836820897    0.0800
     34 H34        -9.1734    2.6496   61.2928 H       1  ZINC000836820897    0.0800
     35 H35       -10.6707    2.7013   58.6787 H       1  ZINC000836820897    0.0900
     36 H36        -9.2948    3.7153   59.2244 H       1  ZINC000836820897    0.1000
     37 H37        -8.2786   -0.3186   59.1015 H       1  ZINC000836820897    0.1000
     38 H38        -9.9825   -0.0389   58.6289 H       1  ZINC000836820897    0.0900
@<TRIPOS>BOND
     1     1     2    2
     2     2     3    1
     3     2    17   am
     4     3    16   ar
     5     3     4   ar
     6     4     5   ar
     7     4    24    1
     8     5     6   ar
     9     5    25    1
    10     6     7    1
    11     6     8   ar
    12     8     9    1
    13     8    16   ar
    14     9    10    2
    15     9    11    2
    16     9    12   am
    17    12    13    1
    18    12    26    1
    19    13    15    1
    20    13    14    1
    21    13    27    1
    22    14    15    1
    23    14    28    1
    24    14    29    1
    25    15    30    1
    26    15    31    1
    27    16    32    1
    28    17    23    1
    29    17    18    1
    30    18    19    1
    31    18    33    1
    32    18    34    1
    33    19    20    1
    34    19    35    1
    35    19    36    1
    36    20    21    1
    37    20    22    1
    38    20    23    1
    39    23    37    1
    40    23    38    1
@<TRIPOS>SUBSTRUCTURE
     1 ZINC000836820897        1 TEMP              0 ****  ****    0 ROOT


##########                                Name:    ZINC000504860563
##########                DOCK_Rotatable_Bonds:                   6
##########                         Heavy_Atoms:                  25
##########                    Molecular_Weight:             370.786
##########                DOCK_Rotatable_Bonds:                   6
##########                       Formal_Charge:                0.01
##########                     HBond_Acceptors:                   9
##########                        HBond_Donors:                   0
##########                         Heavy_Atoms:                  25
##########                          Grid_Score:          -27.660515
##########                     Grid_vdw_energy:          -27.187279
##########                      Grid_es_energy:           -0.473236
##########           Internal_energy_repulsive:           16.667175

@<TRIPOS>MOLECULE
ZINC000504860563
 42 44 1 0 0
SMALL
USER_CHARGES


@<TRIPOS>ATOM
      1 O1        -12.1549   -0.0895   57.0414 O.2     1  ZINC000504860563   -0.5100
      2 C2        -11.9315   -1.0401   57.7652 C.2     1  ZINC000504860563    0.5700
      3 C3        -12.8107   -2.2277   57.7181 C.ar    1  ZINC000504860563    0.0500
      4 N4        -12.3282   -3.3893   57.2908 N.ar    1  ZINC000504860563   -0.4100
      5 C5        -13.0759   -4.4684   57.2340 C.ar    1  ZINC000504860563    0.0600
      6 C6        -14.4078   -4.4378   57.6205 C.ar    1  ZINC000504860563   -0.1000
      7 C7        -14.9575   -3.2517   58.0731 C.ar    1  ZINC000504860563   -0.1700
      8 C8        -14.1439   -2.1223   58.1295 C.ar    1  ZINC000504860563    0.1400
      9 O9        -14.6386   -0.9373   58.5668 O.3     1  ZINC000504860563   -0.2600
     10 C10       -15.5716   -0.9833   59.6482 C.3     1  ZINC000504860563   -0.0100
     11 C11       -14.9008   -1.6060   60.8743 C.3     1  ZINC000504860563    0.2800
     12 F12       -13.8301   -0.8016   61.2790 F       1  ZINC000504860563   -0.1900
     13 F13       -15.8304   -1.7034   61.9154 F       1  ZINC000504860563   -0.1900
     14 N14       -10.8790   -1.0137   58.6067 N.am    1  ZINC000504860563   -0.6000
     15 C15        -9.9998    0.1617   58.6692 C.3     1  ZINC000504860563    0.0800
     16 C16        -9.9054    0.6300   60.1247 C.3     1  ZINC000504860563   -0.1500
     17 C17        -9.4555   -0.5389   61.0043 C.3     1  ZINC000504860563    0.1600
     18 N18        -9.3322   -0.0862   62.3921 N.pl3   1  ZINC000504860563   -0.3600
     19 C19        -8.5001   -0.5987   63.3240 C.2     1  ZINC000504860563    0.0700
     20 C20        -8.6893    0.0941   64.4715 C.2     1  ZINC000504860563   -0.1900
     21 Cl21       -7.8610   -0.1717   65.9738 Cl      1  ZINC000504860563   -0.0400
     22 C22        -9.6704    1.0628   64.2323 C.2     1  ZINC000504860563    0.0600
     23 N23       -10.0524    0.9589   62.9852 N.2     1  ZINC000504860563   -0.2800
     24 C24       -10.4881   -1.6658   60.9254 C.3     1  ZINC000504860563   -0.1400
     25 C25       -10.5927   -2.1575   59.4834 C.3     1  ZINC000504860563    0.1200
     26 H26       -12.6465   -5.3941   56.8802 H       1  ZINC000504860563    0.1700
     27 H27       -15.0107   -5.3323   57.5682 H       1  ZINC000504860563    0.1500
     28 H28       -15.9920   -3.2034   58.3794 H       1  ZINC000504860563    0.1500
     29 H29       -15.8998    0.0281   59.8881 H       1  ZINC000504860563    0.1000
     30 H30       -16.4328   -1.5860   59.3598 H       1  ZINC000504860563    0.1000
     31 H31       -14.5330   -2.6004   60.6215 H       1  ZINC000504860563    0.1300
     32 H32        -9.0073   -0.1047   58.3059 H       1  ZINC000504860563    0.0700
     33 H33       -10.4138    0.9609   58.0544 H       1  ZINC000504860563    0.1600
     34 H34        -9.1813    1.4413   60.1996 H       1  ZINC000504860563    0.0900
     35 H35       -10.8819    0.9812   60.4581 H       1  ZINC000504860563    0.0700
     36 H36        -8.4904   -0.9058   60.6548 H       1  ZINC000504860563    0.1100
     37 H37        -7.8082   -1.4154   63.1799 H       1  ZINC000504860563    0.1800
     38 H38       -10.0451    1.7757   64.9520 H       1  ZINC000504860563    0.1900
     39 H39       -10.1788   -2.4883   61.5702 H       1  ZINC000504860563    0.0900
     40 H40       -11.4591   -1.2928   61.2511 H       1  ZINC000504860563    0.0800
     41 H41       -11.3959   -2.8901   59.4045 H       1  ZINC000504860563    0.1000
     42 H42        -9.6490   -2.6132   59.1832 H       1  ZINC000504860563    0.0800
@<TRIPOS>BOND
     1     1     2    2
     2     2     3    1
     3     2    14   am
     4     3     8   ar
     5     3     4   ar
     6     4     5   ar
     7     5     6   ar
     8     5    26    1
     9     6     7   ar
    10     6    27    1
    11     7     8   ar
    12     7    28    1
    13     8     9    1
    14     9    10    1
    15    10    11    1
    16    10    29    1
    17    10    30    1
    18    11    12    1
    19    11    13    1
    20    11    31    1
    21    14    25    1
    22    14    15    1
    23    15    16    1
    24    15    32    1
    25    15    33    1
    26    16    17    1
    27    16    34    1
    28    16    35    1
    29    17    18    1
    30    17    24    1
    31    17    36    1
    32    18    23    1
    33    18    19    1
    34    19    20    2
    35    19    37    1
    36    20    21    1
    37    20    22    1
    38    22    23    2
    39    22    38    1
    40    24    25    1
    41    24    39    1
    42    24    40    1
    43    25    41    1
    44    25    42    1
@<TRIPOS>SUBSTRUCTURE
     1 ZINC000504860563        1 TEMP              0 ****  ****    0 ROOT


##########                                Name:    ZINC000446721380
##########                DOCK_Rotatable_Bonds:                   8
##########                         Heavy_Atoms:                  26
##########                    Molecular_Weight:             419.318
##########                DOCK_Rotatable_Bonds:                   8
##########                       Formal_Charge:           0.0199992
##########                     HBond_Acceptors:                   5
##########                        HBond_Donors:                   2
##########                         Heavy_Atoms:                  26
##########                          Grid_Score:          -27.658821
##########                     Grid_vdw_energy:          -26.547352
##########                      Grid_es_energy:           -1.111469
##########           Internal_energy_repulsive:           12.763027

@<TRIPOS>MOLECULE
ZINC000446721380
 49 51 1 0 0
SMALL
USER_CHARGES


@<TRIPOS>ATOM
      1 C1         -1.8649    3.2577   56.5704 C.3     1  ZINC000446721380   -0.1200
      2 C2         -3.3058    3.3097   56.1319 C.ar    1  ZINC000446721380   -0.0300
      3 C3         -4.2585    2.5636   56.8004 C.ar    1  ZINC000446721380   -0.1600
      4 C4         -5.5814    2.6091   56.4005 C.ar    1  ZINC000446721380   -0.0500
      5 C5         -5.9542    3.4005   55.3316 C.ar    1  ZINC000446721380   -0.1500
      6 C6         -7.3962    3.4500   54.8967 C.3     1  ZINC000446721380    0.1900
      7 N7         -7.9087    2.0857   54.7484 N.am    1  ZINC000446721380   -0.7300
      8 C8         -9.2340    1.8519   54.8225 C.2     1  ZINC000446721380    0.7100
      9 O9        -10.0043    2.7735   55.0107 O.2     1  ZINC000446721380   -0.5700
     10 N10        -9.7053    0.5964   54.6877 N.am    1  ZINC000446721380   -0.6900
     11 C11       -11.0818    0.3536   54.7646 C.ar    1  ZINC000446721380    0.2000
     12 C12       -11.8001    0.7682   55.8777 C.ar    1  ZINC000446721380   -0.1200
     13 C13       -13.1586    0.5274   55.9505 C.ar    1  ZINC000446721380   -0.0800
     14 C14       -13.8033   -0.1256   54.9164 C.ar    1  ZINC000446721380   -0.1300
     15 C15       -13.0909   -0.5406   53.8059 C.ar    1  ZINC000446721380   -0.0700
     16 C16       -11.7332   -0.2979   53.7242 C.ar    1  ZINC000446721380   -0.1300
     17 Br17      -10.7598   -0.8649   52.2054 Br      1  ZINC000446721380   -0.0500
     18 C18        -4.9999    4.1504   54.6591 C.ar    1  ZINC000446721380    0.1500
     19 O19        -5.3642    4.9302   53.6074 O.3     1  ZINC000446721380   -0.3100
     20 C20        -4.6242    4.7719   52.3953 C.3     1  ZINC000446721380    0.0700
     21 C21        -4.7500    3.3277   51.9059 C.3     1  ZINC000446721380   -0.1200
     22 H22        -5.2619    2.7171   52.6496 H       1  ZINC000446721380    0.1000
     23 C23        -3.3534    2.7392   51.5898 C.3     1  ZINC000446721380   -0.1500
     24 C24        -3.6251    1.9378   50.2912 C.3     1  ZINC000446721380    0.0500
     25 O25        -4.5762    2.7596   49.5811 O.3     1  ZINC000446721380   -0.3800
     26 C26        -5.4979    3.2777   50.5595 C.3     1  ZINC000446721380    0.0500
     27 C27        -3.6745    4.1072   55.0657 C.ar    1  ZINC000446721380   -0.2100
     28 H28        -1.6852    4.0284   57.3199 H       1  ZINC000446721380    0.0800
     29 H29        -1.6502    2.2782   56.9976 H       1  ZINC000446721380    0.0700
     30 H30        -1.2171    3.4290   55.7106 H       1  ZINC000446721380    0.0700
     31 H31        -3.9689    1.9438   57.6361 H       1  ZINC000446721380    0.1300
     32 H32        -6.3237    2.0250   56.9241 H       1  ZINC000446721380    0.1300
     33 H33        -7.9840    3.9794   55.6466 H       1  ZINC000446721380    0.0800
     34 H34        -7.4702    3.9717   53.9425 H       1  ZINC000446721380    0.0800
     35 H35        -7.2942    1.3506   54.5970 H       1  ZINC000446721380    0.4000
     36 H36        -9.0907   -0.1389   54.5375 H       1  ZINC000446721380    0.4100
     37 H37       -11.2975    1.2780   56.6862 H       1  ZINC000446721380    0.1500
     38 H38       -13.7177    0.8495   56.8167 H       1  ZINC000446721380    0.1300
     39 H39       -14.8653   -0.3125   54.9760 H       1  ZINC000446721380    0.1300
     40 H40       -13.5972   -1.0511   53.0001 H       1  ZINC000446721380    0.1400
     41 H41        -5.0196    5.4481   51.6372 H       1  ZINC000446721380    0.0700
     42 H42        -3.5748    5.0039   52.5773 H       1  ZINC000446721380    0.0700
     43 H43        -2.6278    3.5330   51.4124 H       1  ZINC000446721380    0.0800
     44 H44        -3.0186    2.0801   52.3908 H       1  ZINC000446721380    0.0900
     45 H45        -2.7089    1.8233   49.7120 H       1  ZINC000446721380    0.1000
     46 H46        -4.0573    0.9646   50.5241 H       1  ZINC000446721380    0.0600
     47 H47        -6.3639    2.6204   50.6375 H       1  ZINC000446721380    0.0600
     48 H48        -5.8158    4.2807   50.2747 H       1  ZINC000446721380    0.0900
     49 H49        -2.9298    4.6900   54.5438 H       1  ZINC000446721380    0.1300
@<TRIPOS>BOND
     1     1     2    1
     2     1    28    1
     3     1    29    1
     4     1    30    1
     5     2    27   ar
     6     2     3   ar
     7     3     4   ar
     8     3    31    1
     9     4     5   ar
    10     4    32    1
    11     5     6    1
    12     5    18   ar
    13     6     7    1
    14     6    33    1
    15     6    34    1
    16     7     8   am
    17     7    35    1
    18     8     9    2
    19     8    10   am
    20    10    11    1
    21    10    36    1
    22    11    16   ar
    23    11    12   ar
    24    12    13   ar
    25    12    37    1
    26    13    14   ar
    27    13    38    1
    28    14    15   ar
    29    14    39    1
    30    15    16   ar
    31    15    40    1
    32    16    17    1
    33    18    19    1
    34    18    27   ar
    35    19    20    1
    36    20    21    1
    37    20    41    1
    38    20    42    1
    39    21    22    1
    40    21    26    1
    41    21    23    1
    42    23    24    1
    43    23    43    1
    44    23    44    1
    45    24    25    1
    46    24    45    1
    47    24    46    1
    48    25    26    1
    49    26    47    1
    50    26    48    1
    51    27    49    1
@<TRIPOS>SUBSTRUCTURE
     1 ZINC000446721380        1 TEMP              0 ****  ****    0 ROOT


##########                                Name:    ZINC000245764166
##########                DOCK_Rotatable_Bonds:                   8
##########                         Heavy_Atoms:                  26
##########                    Molecular_Weight:             359.512
##########                DOCK_Rotatable_Bonds:                   8
##########                       Formal_Charge:          -0.0100008
##########                     HBond_Acceptors:                   5
##########                        HBond_Donors:                   2
##########                         Heavy_Atoms:                  26
##########                          Grid_Score:          -27.650454
##########                     Grid_vdw_energy:          -25.646486
##########                      Grid_es_energy:           -2.003968
##########           Internal_energy_repulsive:           29.867868

@<TRIPOS>MOLECULE
ZINC000245764166
 59 61 1 0 0
SMALL
USER_CHARGES


@<TRIPOS>ATOM
      1 C1         -7.8548    4.7758   65.7243 C.3     1  ZINC000245764166    0.0200
      2 N2         -6.7522    3.8053   65.7125 N.3     1  ZINC000245764166   -0.5300
      3 C3         -5.4553    4.4801   65.8570 C.3     1  ZINC000245764166    0.0600
      4 C4         -4.3495    3.4571   65.8166 C.ar    1  ZINC000245764166   -0.0800
      5 C5         -4.0643    2.7939   64.6377 C.ar    1  ZINC000245764166   -0.1000
      6 C6         -3.0500    1.8555   64.6006 C.ar    1  ZINC000245764166   -0.1200
      7 C7         -2.3205    1.5806   65.7422 C.ar    1  ZINC000245764166   -0.1200
      8 C8         -2.6051    2.2445   66.9208 C.ar    1  ZINC000245764166   -0.1200
      9 C9         -3.6166    3.1860   66.9568 C.ar    1  ZINC000245764166   -0.1200
     10 C10        -6.9353    2.7878   66.7562 C.3     1  ZINC000245764166    0.0500
     11 C11        -7.7816    1.6385   66.2050 C.3     1  ZINC000245764166    0.1900
     12 C12        -7.1486    0.3032   66.6014 C.3     1  ZINC000245764166   -0.1600
     13 C13        -9.1958    1.7240   66.7825 C.3     1  ZINC000245764166   -0.1500
     14 N14        -7.8439    1.7349   64.7445 N.am    1  ZINC000245764166   -0.7400
     15 C15        -8.5857    0.8556   64.0422 C.2     1  ZINC000245764166    0.7000
     16 O16        -9.2020   -0.0184   64.6206 O.2     1  ZINC000245764166   -0.5800
     17 N17        -8.6443    0.9453   62.6987 N.am    1  ZINC000245764166   -0.7500
     18 C18        -9.4492   -0.0116   61.9352 C.3     1  ZINC000245764166    0.1800
     19 H19       -10.0762   -0.5808   62.6213 H       1  ZINC000245764166    0.0900
     20 C20        -8.5208   -0.9684   61.1915 C.3     1  ZINC000245764166   -0.1300
     21 C21        -9.3760   -1.9993   60.4465 C.3     1  ZINC000245764166   -0.1100
     22 C22       -10.2153   -1.2638   59.4020 C.3     1  ZINC000245764166   -0.1100
     23 C23       -11.1075   -0.2271   60.0433 C.3     1  ZINC000245764166    0.0900
     24 H24       -11.5984    0.3517   59.2610 H       1  ZINC000245764166    0.0600
     25 O25       -12.1082   -0.7979   60.8972 O.3     1  ZINC000245764166   -0.3600
     26 C26       -12.6204    0.2870   61.6961 C.3     1  ZINC000245764166    0.0500
     27 C27       -11.5094    1.3525   61.7894 C.3     1  ZINC000245764166   -0.1500
     28 C28       -10.3409    0.7512   60.9530 C.3     1  ZINC000245764166   -0.1300
     29 H29        -9.7973    1.5080   60.3875 H       1  ZINC000245764166    0.1000
     30 H30        -7.7032    5.5078   64.9310 H       1  ZINC000245764166    0.0800
     31 H31        -8.7988    4.2553   65.5629 H       1  ZINC000245764166    0.0700
     32 H32        -7.8808    5.2847   66.6880 H       1  ZINC000245764166    0.0200
     33 H33        -5.3227    5.1908   65.0412 H       1  ZINC000245764166    0.0400
     34 H34        -5.4255    5.0101   66.8090 H       1  ZINC000245764166    0.1100
     35 H35        -4.6342    3.0087   63.7458 H       1  ZINC000245764166    0.1200
     36 H36        -2.8276    1.3367   63.6797 H       1  ZINC000245764166    0.1200
     37 H37        -1.5285    0.8470   65.7133 H       1  ZINC000245764166    0.1200
     38 H38        -2.0354    2.0296   67.8128 H       1  ZINC000245764166    0.1200
     39 H39        -3.8389    3.7047   67.8777 H       1  ZINC000245764166    0.1200
     40 H40        -5.9625    2.4064   67.0665 H       1  ZINC000245764166    0.0400
     41 H41        -7.4411    3.2331   67.6129 H       1  ZINC000245764166    0.1000
     42 H42        -7.1022    0.2316   67.6882 H       1  ZINC000245764166    0.0700
     43 H43        -7.7515   -0.5155   66.2087 H       1  ZINC000245764166    0.0800
     44 H44        -6.1410    0.2424   66.1900 H       1  ZINC000245764166    0.0500
     45 H45        -9.6911    2.6165   66.4001 H       1  ZINC000245764166    0.0600
     46 H46        -9.7622    0.8401   66.4890 H       1  ZINC000245764166    0.0800
     47 H47        -9.1417    1.7762   67.8699 H       1  ZINC000245764166    0.0600
     48 H48        -7.3513    2.4315   64.2829 H       1  ZINC000245764166    0.3900
     49 H49        -8.1536    1.6433   62.2373 H       1  ZINC000245764166    0.3900
     50 H50        -7.9160   -0.4100   60.4771 H       1  ZINC000245764166    0.0600
     51 H51        -7.8726   -1.4775   61.9046 H       1  ZINC000245764166    0.0700
     52 H52        -8.7294   -2.7252   59.9533 H       1  ZINC000245764166    0.0700
     53 H53       -10.0320   -2.5104   61.1513 H       1  ZINC000245764166    0.0700
     54 H54        -9.5504   -0.7721   58.6920 H       1  ZINC000245764166    0.0800
     55 H55       -10.8338   -1.9858   58.8687 H       1  ZINC000245764166    0.0700
     56 H56       -13.5034    0.7131   61.2198 H       1  ZINC000245764166    0.0600
     57 H57       -12.8725   -0.0739   62.6932 H       1  ZINC000245764166    0.0800
     58 H58       -11.8451    2.2941   61.3547 H       1  ZINC000245764166    0.0800
     59 H59       -11.2035    1.4963   62.8256 H       1  ZINC000245764166    0.0800
@<TRIPOS>BOND
     1     1     2    1
     2     1    30    1
     3     1    31    1
     4     1    32    1
     5     2     3    1
     6     2    10    1
     7     3     4    1
     8     3    33    1
     9     3    34    1
    10     4     9   ar
    11     4     5   ar
    12     5     6   ar
    13     5    35    1
    14     6     7   ar
    15     6    36    1
    16     7     8   ar
    17     7    37    1
    18     8     9   ar
    19     8    38    1
    20     9    39    1
    21    10    11    1
    22    10    40    1
    23    10    41    1
    24    11    12    1
    25    11    13    1
    26    11    14    1
    27    12    42    1
    28    12    43    1
    29    12    44    1
    30    13    45    1
    31    13    46    1
    32    13    47    1
    33    14    15   am
    34    14    48    1
    35    15    16    2
    36    15    17   am
    37    17    18    1
    38    17    49    1
    39    18    19    1
    40    18    28    1
    41    18    20    1
    42    20    21    1
    43    20    50    1
    44    20    51    1
    45    21    22    1
    46    21    52    1
    47    21    53    1
    48    22    23    1
    49    22    54    1
    50    22    55    1
    51    23    24    1
    52    23    28    1
    53    23    25    1
    54    25    26    1
    55    26    27    1
    56    26    56    1
    57    26    57    1
    58    27    28    1
    59    27    58    1
    60    27    59    1
    61    28    29    1
@<TRIPOS>SUBSTRUCTURE
     1 ZINC000245764166        1 TEMP              0 ****  ****    0 ROOT


##########                                Name:    ZINC000768148687
##########                DOCK_Rotatable_Bonds:                   8
##########                         Heavy_Atoms:                  25
##########                    Molecular_Weight:             371.307
##########                DOCK_Rotatable_Bonds:                   8
##########                       Formal_Charge:         2.98023e-08
##########                     HBond_Acceptors:                  11
##########                        HBond_Donors:                   0
##########                         Heavy_Atoms:                  25
##########                          Grid_Score:          -27.616623
##########                     Grid_vdw_energy:          -26.792238
##########                      Grid_es_energy:           -0.824386
##########           Internal_energy_repulsive:            9.230390

@<TRIPOS>MOLECULE
ZINC000768148687
 43 44 1 0 0
SMALL
USER_CHARGES


@<TRIPOS>ATOM
      1 C1        -14.5078   -5.9909   56.1090 C.3     1  ZINC000768148687   -0.1800
      2 C2        -14.3555   -4.5286   55.6854 C.3     1  ZINC000768148687    0.1100
      3 N3        -14.0442   -3.7099   56.8598 N.pl3   1  ZINC000768148687   -0.3100
      4 N4        -14.8029   -3.6424   58.0336 N.2     1  ZINC000768148687   -0.2000
      5 C5        -14.2276   -2.8154   58.8620 C.2     1  ZINC000768148687    0.0200
      6 C6        -14.7202   -2.4565   60.2403 C.3     1  ZINC000768148687    0.5500
      7 F7        -13.6932   -2.6561   61.1691 F       1  ZINC000768148687   -0.1600
      8 F8        -15.1125   -1.1138   60.2603 F       1  ZINC000768148687   -0.1600
      9 F9        -15.8119   -3.2663   60.5709 F       1  ZINC000768148687   -0.1500
     10 C10       -13.0612   -2.3147   58.2403 C.2     1  ZINC000768148687   -0.1800
     11 C11       -12.1078   -1.3511   58.8166 C.2     1  ZINC000768148687    0.5300
     12 O12       -12.4246   -0.1848   58.9436 O.2     1  ZINC000768148687   -0.4700
     13 O13       -10.8842   -1.7628   59.2030 O.3     1  ZINC000768148687   -0.3400
     14 C14       -10.3060   -1.1114   60.3647 C.3     1  ZINC000768148687    0.0200
     15 C15        -9.0045   -0.4143   59.9632 C.3     1  ZINC000768148687    0.0600
     16 N16        -9.3155    0.8579   59.2979 N.3     1  ZINC000768148687   -0.5300
     17 C17        -8.3342    1.1551   58.2443 C.3     1  ZINC000768148687    0.0100
     18 C18        -8.7287    2.4555   57.5390 C.3     1  ZINC000768148687    0.0600
     19 O19        -8.8213    3.5064   58.5046 O.3     1  ZINC000768148687   -0.3800
     20 C20        -9.7685    3.2504   59.5451 C.3     1  ZINC000768148687    0.0600
     21 C21        -9.3845    1.9581   60.2707 C.3     1  ZINC000768148687    0.0100
     22 C22       -12.9800   -2.9028   56.9931 C.2     1  ZINC000768148687    0.0600
     23 C23       -11.9007   -2.6729   55.9669 C.3     1  ZINC000768148687    0.3400
     24 F24       -11.7259   -1.2983   55.7740 F       1  ZINC000768148687   -0.1700
     25 F25       -10.7020   -3.2368   56.4165 F       1  ZINC000768148687   -0.1800
     26 H26       -14.7394   -6.6000   55.2352 H       1  ZINC000768148687    0.0900
     27 H27       -13.5770   -6.3381   56.5575 H       1  ZINC000768148687    0.0700
     28 H28       -15.3155   -6.0763   56.8359 H       1  ZINC000768148687    0.0700
     29 H29       -13.5478   -4.4430   54.9585 H       1  ZINC000768148687    0.1100
     30 H30       -15.2863   -4.1814   55.2369 H       1  ZINC000768148687    0.1200
     31 H31       -11.0077   -0.3742   60.7547 H       1  ZINC000768148687    0.0800
     32 H32       -10.0972   -1.8563   61.1326 H       1  ZINC000768148687    0.0800
     33 H33        -8.4059   -0.2218   60.8536 H       1  ZINC000768148687    0.1100
     34 H34        -8.4452   -1.0541   59.2807 H       1  ZINC000768148687    0.0900
     35 H35        -7.3455    1.2677   58.6891 H       1  ZINC000768148687    0.0500
     36 H36        -8.3181    0.3394   57.5214 H       1  ZINC000768148687    0.0900
     37 H37        -7.9734    2.7098   56.7955 H       1  ZINC000768148687    0.1000
     38 H38        -9.6936    2.3254   57.0489 H       1  ZINC000768148687    0.0600
     39 H39        -9.7651    4.0796   60.2524 H       1  ZINC000768148687    0.1000
     40 H40       -10.7635    3.1434   59.1133 H       1  ZINC000768148687    0.0600
     41 H41       -10.1350    1.7286   61.0271 H       1  ZINC000768148687    0.0800
     42 H42        -8.4125    2.0836   60.7478 H       1  ZINC000768148687    0.0700
     43 H43       -12.1901   -3.1381   55.0246 H       1  ZINC000768148687    0.1500
@<TRIPOS>BOND
     1     1     2    1
     2     1    26    1
     3     1    27    1
     4     1    28    1
     5     2     3    1
     6     2    29    1
     7     2    30    1
     8     3    22    1
     9     3     4    1
    10     4     5    2
    11     5     6    1
    12     5    10    1
    13     6     7    1
    14     6     8    1
    15     6     9    1
    16    10    11    1
    17    10    22    2
    18    11    12    2
    19    11    13    1
    20    13    14    1
    21    14    15    1
    22    14    31    1
    23    14    32    1
    24    15    16    1
    25    15    33    1
    26    15    34    1
    27    16    21    1
    28    16    17    1
    29    17    18    1
    30    17    35    1
    31    17    36    1
    32    18    19    1
    33    18    37    1
    34    18    38    1
    35    19    20    1
    36    20    21    1
    37    20    39    1
    38    20    40    1
    39    21    41    1
    40    21    42    1
    41    22    23    1
    42    23    24    1
    43    23    25    1
    44    23    43    1
@<TRIPOS>SUBSTRUCTURE
     1 ZINC000768148687        1 TEMP              0 ****  ****    0 ROOT


##########                                Name:    ZINC000430767928
##########                DOCK_Rotatable_Bonds:                   4
##########                         Heavy_Atoms:                  25
##########                    Molecular_Weight:             358.505
##########                DOCK_Rotatable_Bonds:                   4
##########                       Formal_Charge:          -0.0100002
##########                     HBond_Acceptors:                   5
##########                        HBond_Donors:                   0
##########                         Heavy_Atoms:                  25
##########                          Grid_Score:          -27.615963
##########                     Grid_vdw_energy:          -26.585236
##########                      Grid_es_energy:           -1.030728
##########           Internal_energy_repulsive:           23.746340

@<TRIPOS>MOLECULE
ZINC000430767928
 51 55 1 0 0
SMALL
USER_CHARGES


@<TRIPOS>ATOM
      1 O1         -9.7290   -2.8745   58.6792 O.2     1  ZINC000430767928   -0.4600
      2 C2        -10.3825   -1.8593   58.7888 C.2     1  ZINC000430767928    0.5300
      3 C3         -9.8821   -0.4823   59.1530 C.3     1  ZINC000430767928    0.0400
      4 H4         -9.3020   -0.0186   58.3551 H       1  ZINC000430767928    0.1400
      5 C5         -9.1409   -0.4883   60.5059 C.3     1  ZINC000430767928   -0.1100
      6 C6         -9.4522    0.9252   61.0611 C.3     1  ZINC000430767928   -0.1000
      7 H7         -8.6319    1.6083   60.8406 H       1  ZINC000430767928    0.1000
      8 C8         -9.6997    0.8617   62.5696 C.3     1  ZINC000430767928   -0.0800
      9 C9         -8.4369    0.3605   63.2731 C.3     1  ZINC000430767928   -0.1100
     10 C10        -8.6846    0.2970   64.7816 C.3     1  ZINC000430767928   -0.1200
     11 C11        -9.0370    1.6928   65.2997 C.3     1  ZINC000430767928   -0.1200
     12 C12       -10.2998    2.1941   64.5962 C.3     1  ZINC000430767928   -0.1200
     13 C13       -10.0522    2.2576   63.0877 C.3     1  ZINC000430767928   -0.1200
     14 C14       -10.7336    1.3682   60.3222 C.3     1  ZINC000430767928    0.1600
     15 N15       -11.1444    0.2470   59.4605 N.am    1  ZINC000430767928   -0.6400
     16 C16       -12.1167   -0.4550   58.8699 C.2     1  ZINC000430767928    0.7400
     17 O17       -13.2228   -0.0163   58.6221 O.2     1  ZINC000430767928   -0.5100
     18 N18       -11.7140   -1.7172   58.6054 N.am    1  ZINC000430767928   -0.5800
     19 C19       -12.6076   -2.7979   58.1812 C.3     1  ZINC000430767928    0.2600
     20 H20       -12.0785   -3.7494   58.2360 H       1  ZINC000430767928    0.1200
     21 C21       -13.8111   -2.8394   59.0870 C.2     1  ZINC000430767928   -0.2100
     22 C22       -13.8614   -2.3388   60.3224 C.2     1  ZINC000430767928   -0.1200
     23 C23       -15.0772   -2.4940   60.9657 C.2     1  ZINC000430767928   -0.1400
     24 C24       -16.0142   -3.1210   60.2527 C.2     1  ZINC000430767928   -0.2300
     25 S25       -15.3668   -3.5488   58.6744 S.3     1  ZINC000430767928    0.1700
     26 C26       -13.0613   -2.5488   56.7414 C.3     1  ZINC000430767928   -0.1700
     27 C27       -12.2576   -1.5460   55.9109 C.3     1  ZINC000430767928   -0.1700
     28 C28       -12.1485   -3.0437   55.6175 C.3     1  ZINC000430767928   -0.1600
     29 H29        -9.5411   -1.2598   61.1636 H       1  ZINC000430767928    0.0800
     30 H30        -8.0687   -0.6198   60.3598 H       1  ZINC000430767928    0.1000
     31 H31       -10.5248    0.1793   62.7740 H       1  ZINC000430767928    0.0700
     32 H32        -8.1859   -0.6340   62.9039 H       1  ZINC000430767928    0.0600
     33 H33        -7.6120    1.0429   63.0686 H       1  ZINC000430767928    0.0700
     34 H34        -9.5096   -0.3854   64.9859 H       1  ZINC000430767928    0.0600
     35 H35        -7.7849   -0.0601   65.2827 H       1  ZINC000430767928    0.0600
     36 H36        -9.2134    1.6477   66.3743 H       1  ZINC000430767928    0.0600
     37 H37        -8.2121    2.3753   65.0953 H       1  ZINC000430767928    0.0600
     38 H38       -11.1249    1.5117   64.8006 H       1  ZINC000430767928    0.0600
     39 H39       -10.5509    3.1885   64.9653 H       1  ZINC000430767928    0.0600
     40 H40        -9.2272    2.9400   62.8832 H       1  ZINC000430767928    0.0700
     41 H41       -10.9519    2.6147   62.5866 H       1  ZINC000430767928    0.0600
     42 H42       -11.5185    1.5998   61.0423 H       1  ZINC000430767928    0.0900
     43 H43       -10.5248    2.2409   59.7035 H       1  ZINC000430767928    0.0800
     44 H44       -13.0174   -1.8495   60.7857 H       1  ZINC000430767928    0.1400
     45 H45       -15.2535   -2.1352   61.9689 H       1  ZINC000430767928    0.1400
     46 H46       -17.0180   -3.3306   60.5916 H       1  ZINC000430767928    0.1600
     47 H47       -14.1372   -2.5945   56.5729 H       1  ZINC000430767928    0.1200
     48 H48       -12.8048   -0.9317   55.1960 H       1  ZINC000430767928    0.1000
     49 H49       -11.4058   -1.0638   56.3903 H       1  ZINC000430767928    0.1000
     50 H50       -11.2249   -3.5467   55.9039 H       1  ZINC000430767928    0.1000
     51 H51       -12.6240   -3.4146   54.7094 H       1  ZINC000430767928    0.1000
@<TRIPOS>BOND
     1     1     2    2
     2     2    18   am
     3     2     3    1
     4     3     4    1
     5     3    15    1
     6     3     5    1
     7     5     6    1
     8     5    29    1
     9     5    30    1
    10     6     7    1
    11     6     8    1
    12     6    14    1
    13     8    13    1
    14     8     9    1
    15     8    31    1
    16     9    10    1
    17     9    32    1
    18     9    33    1
    19    10    11    1
    20    10    34    1
    21    10    35    1
    22    11    12    1
    23    11    36    1
    24    11    37    1
    25    12    13    1
    26    12    38    1
    27    12    39    1
    28    13    40    1
    29    13    41    1
    30    14    15    1
    31    14    42    1
    32    14    43    1
    33    15    16   am
    34    16    17    2
    35    16    18   am
    36    18    19    1
    37    19    20    1
    38    19    21    1
    39    19    26    1
    40    21    25    1
    41    21    22    2
    42    22    23    1
    43    22    44    1
    44    23    24    2
    45    23    45    1
    46    24    25    1
    47    24    46    1
    48    26    28    1
    49    26    27    1
    50    26    47    1
    51    27    28    1
    52    27    48    1
    53    27    49    1
    54    28    50    1
    55    28    51    1
@<TRIPOS>SUBSTRUCTURE
     1 ZINC000430767928        1 TEMP              0 ****  ****    0 ROOT


##########                                Name:    ZINC000750807956
##########                DOCK_Rotatable_Bonds:                  11
##########                         Heavy_Atoms:                  26
##########                    Molecular_Weight:             368.473
##########                DOCK_Rotatable_Bonds:                  11
##########                       Formal_Charge:        -8.12113e-07
##########                     HBond_Acceptors:                   7
##########                        HBond_Donors:                   1
##########                         Heavy_Atoms:                  26
##########                          Grid_Score:          -27.599358
##########                     Grid_vdw_energy:          -27.409740
##########                      Grid_es_energy:           -0.189617
##########           Internal_energy_repulsive:           73.450813

@<TRIPOS>MOLECULE
ZINC000750807956
 58 59 1 0 0
SMALL
USER_CHARGES


@<TRIPOS>ATOM
      1 C1        -13.9971   -0.4798   49.4054 C.3     1  ZINC000750807956   -0.1500
      2 C2        -14.1435   -0.5213   50.9280 C.3     1  ZINC000750807956    0.0700
      3 O3        -12.9267   -0.0248   51.5450 O.3     1  ZINC000750807956   -0.3600
      4 C4        -12.1047   -0.9350   52.0906 C.2     1  ZINC000750807956    0.4800
      5 O5        -11.5122   -1.7148   51.3829 O.2     1  ZINC000750807956   -0.4900
      6 C6        -11.9210   -0.9845   53.5855 C.3     1  ZINC000750807956    0.1600
      7 H7        -11.5143   -1.9544   53.8718 H       1  ZINC000750807956    0.1000
      8 C8        -13.2714   -0.7698   54.2762 C.3     1  ZINC000750807956   -0.1300
      9 C9        -13.0579   -0.6821   55.7891 C.3     1  ZINC000750807956   -0.1200
     10 C10       -12.1558    0.5116   56.1104 C.3     1  ZINC000750807956   -0.1400
     11 C11       -10.7927    0.3114   55.4404 C.3     1  ZINC000750807956    0.1100
     12 N12       -10.9982    0.0794   54.0038 N.am    1  ZINC000750807956   -0.6100
     13 C13       -10.3563    0.8317   53.0881 C.2     1  ZINC000750807956    0.5100
     14 O14       -10.5343    0.6303   51.9054 O.2     1  ZINC000750807956   -0.5000
     15 C15        -9.4173    1.9229   53.5337 C.3     1  ZINC000750807956   -0.1400
     16 C16        -9.0149    2.7736   52.3273 C.3     1  ZINC000750807956    0.2100
     17 H17        -9.7813    2.6961   51.5562 H       1  ZINC000750807956    0.1000
     18 N18        -7.7371    2.2934   51.7956 N.am    1  ZINC000750807956   -0.7000
     19 C19        -7.3972    2.5562   50.5182 C.2     1  ZINC000750807956    0.6600
     20 O20        -8.1501    3.1927   49.8078 O.2     1  ZINC000750807956   -0.5600
     21 O21        -6.2236    2.1135   50.0291 O.3     1  ZINC000750807956   -0.3700
     22 C22        -5.0154    2.6896   50.5919 C.3     1  ZINC000750807956    0.1400
     23 C23        -3.8810    2.5949   49.5696 C.3     1  ZINC000750807956   -0.1800
     24 C24        -5.2655    4.1580   50.9415 C.3     1  ZINC000750807956   -0.1400
     25 C25        -4.6267    1.9231   51.8576 C.3     1  ZINC000750807956   -0.1800
     26 C26        -8.8712    4.2345   52.7585 C.3     1  ZINC000750807956   -0.1800
     27 C27        -9.3027    5.3113   51.7609 C.3     1  ZINC000750807956   -0.1700
     28 C28       -10.1559    5.0296   52.9993 C.3     1  ZINC000750807956   -0.1800
     29 H29       -13.1560   -1.1043   49.1043 H       1  ZINC000750807956    0.0600
     30 H30       -14.9106   -0.8525   48.9423 H       1  ZINC000750807956    0.0800
     31 H31       -13.8202    0.5470   49.0854 H       1  ZINC000750807956    0.0700
     32 H32       -14.9847    0.1033   51.2291 H       1  ZINC000750807956    0.0700
     33 H33       -14.3205   -1.5481   51.2480 H       1  ZINC000750807956    0.0600
     34 H34       -13.7201    0.1567   53.9179 H       1  ZINC000750807956    0.0800
     35 H35       -13.9328   -1.6061   54.0499 H       1  ZINC000750807956    0.0800
     36 H36       -14.0201   -0.5540   56.2848 H       1  ZINC000750807956    0.0800
     37 H37       -12.5865   -1.5991   56.1429 H       1  ZINC000750807956    0.0700
     38 H38       -12.6149    1.4261   55.7347 H       1  ZINC000750807956    0.0700
     39 H39       -12.0230    0.5873   57.1895 H       1  ZINC000750807956    0.0800
     40 H40       -10.1811    1.2022   55.5831 H       1  ZINC000750807956    0.0900
     41 H41       -10.2928   -0.5518   55.8799 H       1  ZINC000750807956    0.0800
     42 H42        -9.9152    2.5517   54.2718 H       1  ZINC000750807956    0.1200
     43 H43        -8.5269    1.4773   53.9773 H       1  ZINC000750807956    0.1100
     44 H44        -7.1355    1.7863   52.3630 H       1  ZINC000750807956    0.4000
     45 H45        -4.1580    3.1409   48.6679 H       1  ZINC000750807956    0.0600
     46 H46        -2.9741    3.0273   49.9922 H       1  ZINC000750807956    0.0700
     47 H47        -3.7028    1.5488   49.3206 H       1  ZINC000750807956    0.0900
     48 H48        -6.0737    4.2256   51.6698 H       1  ZINC000750807956    0.0700
     49 H49        -4.3586    4.5905   51.3640 H       1  ZINC000750807956    0.0800
     50 H50        -5.5425    4.7042   50.0397 H       1  ZINC000750807956    0.0700
     51 H51        -4.4484    0.8770   51.6086 H       1  ZINC000750807956    0.0900
     52 H52        -3.7197    2.3556   52.2802 H       1  ZINC000750807956    0.0700
     53 H53        -5.4348    1.9906   52.5860 H       1  ZINC000750807956    0.0600
     54 H54        -8.0161    4.4540   53.3980 H       1  ZINC000750807956    0.1100
     55 H55        -8.7315    6.2394   51.7437 H       1  ZINC000750807956    0.0900
     56 H56        -9.6890    4.9788   50.7974 H       1  ZINC000750807956    0.0900
     57 H57       -11.1036    4.5119   52.8505 H       1  ZINC000750807956    0.1200
     58 H58       -10.1460    5.7725   53.7969 H       1  ZINC000750807956    0.0900
@<TRIPOS>BOND
     1     1     2    1
     2     1    29    1
     3     1    30    1
     4     1    31    1
     5     2     3    1
     6     2    32    1
     7     2    33    1
     8     3     4    1
     9     4     5    2
    10     4     6    1
    11     6     7    1
    12     6    12    1
    13     6     8    1
    14     8     9    1
    15     8    34    1
    16     8    35    1
    17     9    10    1
    18     9    36    1
    19     9    37    1
    20    10    11    1
    21    10    38    1
    22    10    39    1
    23    11    12    1
    24    11    40    1
    25    11    41    1
    26    12    13   am
    27    13    14    2
    28    13    15    1
    29    15    16    1
    30    15    42    1
    31    15    43    1
    32    16    17    1
    33    16    18    1
    34    16    26    1
    35    18    19   am
    36    18    44    1
    37    19    20    2
    38    19    21    1
    39    21    22    1
    40    22    23    1
    41    22    24    1
    42    22    25    1
    43    23    45    1
    44    23    46    1
    45    23    47    1
    46    24    48    1
    47    24    49    1
    48    24    50    1
    49    25    51    1
    50    25    52    1
    51    25    53    1
    52    26    28    1
    53    26    27    1
    54    26    54    1
    55    27    28    1
    56    27    55    1
    57    27    56    1
    58    28    57    1
    59    28    58    1
@<TRIPOS>SUBSTRUCTURE
     1 ZINC000750807956        1 TEMP              0 ****  ****    0 ROOT


##########                                Name:    ZINC000629379364
##########                DOCK_Rotatable_Bonds:                   5
##########                         Heavy_Atoms:                  23
##########                    Molecular_Weight:             386.261
##########                DOCK_Rotatable_Bonds:                   5
##########                       Formal_Charge:               -0.02
##########                     HBond_Acceptors:                   5
##########                        HBond_Donors:                   1
##########                         Heavy_Atoms:                  23
##########                          Grid_Score:          -27.578190
##########                     Grid_vdw_energy:          -26.831755
##########                      Grid_es_energy:           -0.746434
##########           Internal_energy_repulsive:           20.301338

@<TRIPOS>MOLECULE
ZINC000629379364
 44 46 1 0 0
SMALL
USER_CHARGES


@<TRIPOS>ATOM
      1 O1         -8.2501    5.7794   50.7782 O.co2   1  ZINC000629379364   -0.6800
      2 C2         -8.5030    4.8186   50.0716 C.2     1  ZINC000629379364    0.5000
      3 O3         -8.9330    4.9878   48.9433 O.co2   1  ZINC000629379364   -0.6900
      4 C4         -8.2782    3.4217   50.5906 C.3     1  ZINC000629379364   -0.1600
      5 H5         -8.3555    2.7043   49.7735 H       1  ZINC000629379364    0.0800
      6 C6         -9.3145    3.0922   51.6794 C.3     1  ZINC000629379364   -0.1300
      7 C7         -9.0250    1.7408   52.3256 C.3     1  ZINC000629379364   -0.0100
      8 N8         -7.6469    1.6667   52.8481 N.4     1  ZINC000629379364   -0.3700
      9 H9         -7.4872    0.7627   53.2668 H       1  ZINC000629379364    0.4200
     10 C10        -7.4342    2.7233   53.8463 C.3     1  ZINC000629379364   -0.0200
     11 C11        -7.7854    2.1899   55.2365 C.3     1  ZINC000629379364    0.0300
     12 O12        -7.9551    3.2854   56.1382 O.3     1  ZINC000629379364   -0.3200
     13 C13        -8.3108    2.9842   57.4148 C.ar    1  ZINC000629379364    0.1600
     14 C14        -8.5971    4.0006   58.3139 C.ar    1  ZINC000629379364   -0.2300
     15 C15        -8.9591    3.6916   59.6133 C.ar    1  ZINC000629379364    0.1500
     16 F16        -9.2383    4.6809   60.4900 F       1  ZINC000629379364   -0.1200
     17 C17        -9.0357    2.3688   60.0151 C.ar    1  ZINC000629379364   -0.1600
     18 C18        -8.7498    1.3544   59.1189 C.ar    1  ZINC000629379364   -0.0300
     19 Br19       -8.8553   -0.4512   59.6708 Br      1  ZINC000629379364   -0.0100
     20 C20        -8.3935    1.6594   57.8186 C.ar    1  ZINC000629379364   -0.1300
     21 C21        -6.7439    1.8574   51.7246 C.3     1  ZINC000629379364   -0.0100
     22 H22        -6.9987    1.1677   50.9200 H       1  ZINC000629379364    0.1400
     23 C23        -5.2458    1.7721   52.0346 C.3     1  ZINC000629379364   -0.1300
     24 C24        -4.6013    2.5603   50.8621 C.3     1  ZINC000629379364   -0.1200
     25 C25        -5.6905    3.5263   50.3343 C.3     1  ZINC000629379364   -0.1100
     26 C26        -6.9084    3.3233   51.2397 C.3     1  ZINC000629379364   -0.0700
     27 H27        -6.8440    3.9851   52.1034 H       1  ZINC000629379364    0.1000
     28 H28        -9.2870    3.8675   52.4450 H       1  ZINC000629379364    0.0800
     29 H29       -10.3080    3.0686   51.2316 H       1  ZINC000629379364    0.1100
     30 H30        -9.7249    1.5823   53.1462 H       1  ZINC000629379364    0.1200
     31 H31        -9.1661    0.9548   51.5837 H       1  ZINC000629379364    0.1300
     32 H32        -6.3895    3.0339   53.8295 H       1  ZINC000629379364    0.1400
     33 H33        -8.0708    3.5769   53.6131 H       1  ZINC000629379364    0.1700
     34 H34        -8.7112    1.6169   55.1826 H       1  ZINC000629379364    0.1100
     35 H35        -6.9806    1.5471   55.5931 H       1  ZINC000629379364    0.0900
     36 H36        -8.5373    5.0323   58.0001 H       1  ZINC000629379364    0.1500
     37 H37        -9.3187    2.1286   61.0293 H       1  ZINC000629379364    0.1500
     38 H38        -8.1708    0.8667   57.1196 H       1  ZINC000629379364    0.1500
     39 H39        -5.0218    2.2489   52.9888 H       1  ZINC000629379364    0.0800
     40 H40        -4.9102    0.7350   52.0324 H       1  ZINC000629379364    0.0900
     41 H41        -3.7411    3.1260   51.2199 H       1  ZINC000629379364    0.0800
     42 H42        -4.2960    1.8734   50.0728 H       1  ZINC000629379364    0.0800
     43 H43        -5.3377    4.5565   50.3845 H       1  ZINC000629379364    0.0900
     44 H44        -5.9596    3.2683   49.3100 H       1  ZINC000629379364    0.0800
@<TRIPOS>BOND
     1     1     2   ar
     2     2     3   ar
     3     2     4    1
     4     4     5    1
     5     4    26    1
     6     4     6    1
     7     6     7    1
     8     6    28    1
     9     6    29    1
    10     7     8    1
    11     7    30    1
    12     7    31    1
    13     8     9    1
    14     8    10    1
    15     8    21    1
    16    10    11    1
    17    10    32    1
    18    10    33    1
    19    11    12    1
    20    11    34    1
    21    11    35    1
    22    12    13    1
    23    13    20   ar
    24    13    14   ar
    25    14    15   ar
    26    14    36    1
    27    15    16    1
    28    15    17   ar
    29    17    18   ar
    30    17    37    1
    31    18    19    1
    32    18    20   ar
    33    20    38    1
    34    21    22    1
    35    21    26    1
    36    21    23    1
    37    23    24    1
    38    23    39    1
    39    23    40    1
    40    24    25    1
    41    24    41    1
    42    24    42    1
    43    25    26    1
    44    25    43    1
    45    25    44    1
    46    26    27    1
@<TRIPOS>SUBSTRUCTURE
     1 ZINC000629379364        1 TEMP              0 ****  ****    0 ROOT


##########                                Name:    ZINC000962730513
##########                DOCK_Rotatable_Bonds:                   6
##########                         Heavy_Atoms:                  24
##########                    Molecular_Weight:             342.465
##########                DOCK_Rotatable_Bonds:                   6
##########                       Formal_Charge:         -0.00999998
##########                     HBond_Acceptors:                   6
##########                        HBond_Donors:                   1
##########                         Heavy_Atoms:                  24
##########                          Grid_Score:          -27.576147
##########                     Grid_vdw_energy:          -27.767202
##########                      Grid_es_energy:            0.191056
##########           Internal_energy_repulsive:           15.070387

@<TRIPOS>MOLECULE
ZINC000962730513
 46 49 1 0 0
SMALL
USER_CHARGES


@<TRIPOS>ATOM
      1 C1         -4.2206    3.8004   54.5121 C.3     1  ZINC000962730513   -0.1400
      2 C2         -5.3092    3.3482   53.5366 C.3     1  ZINC000962730513   -0.0800
      3 C3         -4.7208    3.2099   52.1562 C.2     1  ZINC000962730513   -0.0100
      4 C4         -5.3277    2.5167   51.1469 C.2     1  ZINC000962730513   -0.2800
      5 C5         -6.6126    1.8184   51.2477 C.2     1  ZINC000962730513    0.6000
      6 O6         -6.9096    0.9690   50.4283 O.2     1  ZINC000962730513   -0.5200
      7 N7         -7.4650    2.1170   52.2480 N.am    1  ZINC000962730513   -0.7000
      8 C8         -8.7500    1.4204   52.3478 C.3     1  ZINC000962730513    0.1200
      9 H9         -9.5240    1.7622   51.6608 H       1  ZINC000962730513    0.1400
     10 C10        -9.1944    0.9564   53.7364 C.3     1  ZINC000962730513   -0.1700
     11 H11        -8.5896    1.2104   54.6068 H       1  ZINC000962730513    0.1200
     12 C12       -10.6957    0.6785   53.9648 C.3     1  ZINC000962730513    0.0700
     13 N13       -10.8801   -0.7387   53.5591 N.3     1  ZINC000962730513   -0.5000
     14 C14       -12.2876   -1.0171   53.2433 C.3     1  ZINC000962730513    0.1100
     15 C15       -12.9873   -1.5288   54.4760 C.ar    1  ZINC000962730513    0.3200
     16 N16       -14.3043   -1.5767   54.4926 N.ar    1  ZINC000962730513   -0.5100
     17 C17       -14.9531   -2.0202   55.5574 C.ar    1  ZINC000962730513    0.1500
     18 C18       -14.2288   -2.4369   56.6631 C.ar    1  ZINC000962730513   -0.1900
     19 C19       -14.9285   -2.9491   57.8956 C.3     1  ZINC000962730513   -0.1100
     20 C20       -12.8454   -2.3715   56.6079 C.ar    1  ZINC000962730513    0.1500
     21 N21       -12.2658   -1.9215   55.5067 N.ar    1  ZINC000962730513   -0.5000
     22 C22       -10.0246   -0.8875   52.3537 C.3     1  ZINC000962730513    0.0700
     23 C23        -8.7190   -0.0706   52.6899 C.3     1  ZINC000962730513   -0.1700
     24 H24        -7.7839   -0.6245   52.7731 H       1  ZINC000962730513    0.1300
     25 S25        -4.3206    2.5972   49.7078 S.3     1  ZINC000962730513    0.1900
     26 C26        -3.1545    3.5417   50.5197 C.2     1  ZINC000962730513   -0.2200
     27 C27        -3.5230    3.7732   51.7852 C.2     1  ZINC000962730513   -0.1500
     28 H28        -3.4198    3.0611   54.5310 H       1  ZINC000962730513    0.0600
     29 H29        -3.8203    4.7615   54.1898 H       1  ZINC000962730513    0.0500
     30 H30        -4.6462    3.9005   55.5106 H       1  ZINC000962730513    0.0600
     31 H31        -5.7095    2.3870   53.8591 H       1  ZINC000962730513    0.1000
     32 H32        -6.1100    4.0875   53.5178 H       1  ZINC000962730513    0.0700
     33 H33        -7.2278    2.7932   52.9018 H       1  ZINC000962730513    0.4000
     34 H34       -10.9508    0.8090   55.0165 H       1  ZINC000962730513    0.0900
     35 H35       -11.3030    1.3345   53.3413 H       1  ZINC000962730513    0.0500
     36 H36       -12.7719   -0.1012   52.9044 H       1  ZINC000962730513    0.1000
     37 H37       -12.3414   -1.7692   52.4563 H       1  ZINC000962730513    0.0700
     38 H38       -16.0324   -2.0566   55.5646 H       1  ZINC000962730513    0.1700
     39 H39       -15.0668   -4.0271   57.8133 H       1  ZINC000962730513    0.0800
     40 H40       -14.3245   -2.7264   58.7753 H       1  ZINC000962730513    0.0700
     41 H41       -15.9001   -2.4642   57.9898 H       1  ZINC000962730513    0.0700
     42 H42       -12.2486   -2.6871   57.4508 H       1  ZINC000962730513    0.1700
     43 H43        -9.7743   -1.9360   52.1923 H       1  ZINC000962730513    0.0800
     44 H44       -10.5268   -0.4765   51.4780 H       1  ZINC000962730513    0.0600
     45 H45        -2.2428    3.9074   50.0711 H       1  ZINC000962730513    0.1700
     46 H46        -2.9194    4.3533   52.4676 H       1  ZINC000962730513    0.1500
@<TRIPOS>BOND
     1     1     2    1
     2     1    28    1
     3     1    29    1
     4     1    30    1
     5     2     3    1
     6     2    31    1
     7     2    32    1
     8     3    27    1
     9     3     4    2
    10     4     5    1
    11     4    25    1
    12     5     6    2
    13     5     7   am
    14     7     8    1
    15     7    33    1
    16     8     9    1
    17     8    23    1
    18     8    10    1
    19    10    11    1
    20    10    23    1
    21    10    12    1
    22    12    13    1
    23    12    34    1
    24    12    35    1
    25    13    14    1
    26    13    22    1
    27    14    15    1
    28    14    36    1
    29    14    37    1
    30    15    21   ar
    31    15    16   ar
    32    16    17   ar
    33    17    18   ar
    34    17    38    1
    35    18    19    1
    36    18    20   ar
    37    19    39    1
    38    19    40    1
    39    19    41    1
    40    20    21   ar
    41    20    42    1
    42    22    23    1
    43    22    43    1
    44    22    44    1
    45    23    24    1
    46    25    26    1
    47    26    27    2
    48    26    45    1
    49    27    46    1
@<TRIPOS>SUBSTRUCTURE
     1 ZINC000962730513        1 TEMP              0 ****  ****    0 ROOT


##########                                Name:    ZINC000337709254
##########                DOCK_Rotatable_Bonds:                   7
##########                         Heavy_Atoms:                  22
##########                    Molecular_Weight:              329.42
##########                DOCK_Rotatable_Bonds:                   7
##########                       Formal_Charge:           0.0300004
##########                     HBond_Acceptors:                   8
##########                        HBond_Donors:                   2
##########                         Heavy_Atoms:                  22
##########                          Grid_Score:          -27.542353
##########                     Grid_vdw_energy:          -23.516657
##########                      Grid_es_energy:           -4.025695
##########           Internal_energy_repulsive:           11.458913

@<TRIPOS>MOLECULE
ZINC000337709254
 45 46 1 0 0
SMALL
USER_CHARGES


@<TRIPOS>ATOM
      1 C1         -6.6485    1.2642   65.8139 C.3     1  ZINC000337709254   -0.6700
      2 S2         -7.9890    0.3729   66.6500 S.o2    1  ZINC000337709254    2.6100
      3 O3         -8.2562   -0.8578   65.9916 O.2     1  ZINC000337709254   -0.9500
      4 O4         -7.8209    0.4281   68.0600 O.2     1  ZINC000337709254   -0.9500
      5 N5         -9.3372    1.2906   66.3632 N.am    1  ZINC000337709254   -1.1200
      6 C6         -9.7759    1.5380   64.9875 C.3     1  ZINC000337709254    0.1200
      7 C7        -10.3434    2.9549   64.8802 C.3     1  ZINC000337709254   -0.1100
      8 H8        -11.1031    3.1194   65.6444 H       1  ZINC000337709254    0.1100
      9 C9         -9.2106    4.0036   65.0071 C.3     1  ZINC000337709254   -0.1200
     10 C10        -9.8096    5.2416   64.2947 C.3     1  ZINC000337709254   -0.1200
     11 C11       -10.5881    4.6513   63.1008 C.3     1  ZINC000337709254   -0.1400
     12 C12       -10.9306    3.1961   63.4742 C.3     1  ZINC000337709254    0.1500
     13 H13       -12.0119    3.0591   63.4888 H       1  ZINC000337709254    0.1000
     14 N14       -10.3213    2.2746   62.5122 N.am    1  ZINC000337709254   -0.7200
     15 C15       -11.0811    1.3538   61.8867 C.2     1  ZINC000337709254    0.5300
     16 O16       -12.2692    1.2872   62.1214 O.2     1  ZINC000337709254   -0.5100
     17 C17       -10.4546    0.4070   60.8958 C.3     1  ZINC000337709254    0.0200
     18 C18        -9.9905    1.1610   59.7199 C.1     1  ZINC000337709254    0.2000
     19 N19        -9.6323    1.7428   58.8123 N.1     1  ZINC000337709254   -0.3900
     20 C20        -9.2679   -0.3077   61.5496 C.3     1  ZINC000337709254   -0.1500
     21 C21        -8.6871   -1.3236   60.5626 C.3     1  ZINC000337709254    0.0600
     22 O22        -9.7076   -2.2457   60.1744 O.3     1  ZINC000337709254   -0.3700
     23 C23       -10.8214   -1.6399   59.5152 C.3     1  ZINC000337709254    0.0600
     24 C24       -11.4879   -0.6366   60.4602 C.3     1  ZINC000337709254   -0.1300
     25 H25        -6.8707    1.3393   64.7494 H       1  ZINC000337709254    0.1300
     26 H26        -6.5576    2.2644   66.2376 H       1  ZINC000337709254    0.1300
     27 H27        -5.7116    0.7245   65.9522 H       1  ZINC000337709254    0.1300
     28 H28        -9.8365    1.6645   67.1061 H       1  ZINC000337709254    0.4200
     29 H29        -8.9273    1.4344   64.3113 H       1  ZINC000337709254    0.0600
     30 H30       -10.5466    0.8164   64.7166 H       1  ZINC000337709254    0.0900
     31 H31        -9.0032    4.2232   66.0544 H       1  ZINC000337709254    0.0800
     32 H32        -8.3096    3.6627   64.4970 H       1  ZINC000337709254    0.0700
     33 H33       -10.4842    5.7770   64.9629 H       1  ZINC000337709254    0.0700
     34 H34        -9.0158    5.9012   63.9440 H       1  ZINC000337709254    0.0700
     35 H35       -11.5044    5.2180   62.9356 H       1  ZINC000337709254    0.0800
     36 H36        -9.9688    4.6723   62.2042 H       1  ZINC000337709254    0.0700
     37 H37        -9.3709    2.3270   62.3255 H       1  ZINC000337709254    0.4000
     38 H38        -8.5029    0.4228   61.8128 H       1  ZINC000337709254    0.0900
     39 H39        -9.6041   -0.8243   62.4485 H       1  ZINC000337709254    0.1100
     40 H40        -8.3143   -0.8019   59.6811 H       1  ZINC000337709254    0.0500
     41 H41        -7.8692   -1.8654   61.0375 H       1  ZINC000337709254    0.1100
     42 H42       -10.4765   -1.1222   58.6201 H       1  ZINC000337709254    0.0500
     43 H43       -11.5410   -2.4094   59.2358 H       1  ZINC000337709254    0.1100
     44 H44       -11.8690   -1.1599   61.3372 H       1  ZINC000337709254    0.1100
     45 H45       -12.3105   -0.1413   59.9444 H       1  ZINC000337709254    0.0900
@<TRIPOS>BOND
     1     1     2    1
     2     1    25    1
     3     1    26    1
     4     1    27    1
     5     2     3    2
     6     2     4    2
     7     2     5   am
     8     5     6    1
     9     5    28    1
    10     6     7    1
    11     6    29    1
    12     6    30    1
    13     7     8    1
    14     7    12    1
    15     7     9    1
    16     9    10    1
    17     9    31    1
    18     9    32    1
    19    10    11    1
    20    10    33    1
    21    10    34    1
    22    11    12    1
    23    11    35    1
    24    11    36    1
    25    12    13    1
    26    12    14    1
    27    14    15   am
    28    14    37    1
    29    15    16    2
    30    15    17    1
    31    17    24    1
    32    17    18    1
    33    17    20    1
    34    18    19    3
    35    20    21    1
    36    20    38    1
    37    20    39    1
    38    21    22    1
    39    21    40    1
    40    21    41    1
    41    22    23    1
    42    23    24    1
    43    23    42    1
    44    23    43    1
    45    24    44    1
    46    24    45    1
@<TRIPOS>SUBSTRUCTURE
     1 ZINC000337709254        1 TEMP              0 ****  ****    0 ROOT


##########                                Name:    ZINC000800038938
##########                DOCK_Rotatable_Bonds:                   6
##########                         Heavy_Atoms:                  25
##########                    Molecular_Weight:             386.274
##########                DOCK_Rotatable_Bonds:                   6
##########                       Formal_Charge:           0.0200003
##########                     HBond_Acceptors:                   7
##########                        HBond_Donors:                   0
##########                         Heavy_Atoms:                  25
##########                          Grid_Score:          -27.541340
##########                     Grid_vdw_energy:          -27.567190
##########                      Grid_es_energy:            0.025849
##########           Internal_energy_repulsive:           15.180923

@<TRIPOS>MOLECULE
ZINC000800038938
 46 48 1 0 0
SMALL
USER_CHARGES


@<TRIPOS>ATOM
      1 C1         -8.2145   -0.4968   67.0331 C.3     1  ZINC000800038938    0.0300
      2 O2         -8.2521   -0.8107   65.6395 O.3     1  ZINC000800038938   -0.3800
      3 C3         -8.2260    0.3343   64.7848 C.3     1  ZINC000800038938    0.0900
      4 H4         -7.3196    0.9127   64.9637 H       1  ZINC000800038938    0.0700
      5 C5         -9.4704    1.2103   65.0370 C.3     1  ZINC000800038938   -0.1400
      6 C6         -9.8551    1.7371   63.6322 C.3     1  ZINC000800038938   -0.1400
      7 C7         -9.5704    0.5180   62.7202 C.3     1  ZINC000800038938    0.0900
      8 H8        -10.3959   -0.1923   62.7639 H       1  ZINC000800038938    0.0900
      9 O9         -9.3439    0.9486   61.3522 O.3     1  ZINC000800038938   -0.3500
     10 C10       -10.3873    0.8784   60.5106 C.2     1  ZINC000800038938    0.4500
     11 O11       -10.1999    0.7141   59.3283 O.2     1  ZINC000800038938   -0.4800
     12 C12       -11.7925    1.0045   61.0403 C.3     1  ZINC000800038938    0.1500
     13 H13       -11.7960    0.8567   62.1202 H       1  ZINC000800038938    0.1200
     14 C14       -12.3586    2.3993   60.6997 C.3     1  ZINC000800038938   -0.1200
     15 C15       -13.8397    2.0971   60.3498 C.3     1  ZINC000800038938   -0.1300
     16 C16       -13.7195    0.7200   59.6508 C.3     1  ZINC000800038938    0.0900
     17 N17       -12.6609    0.0082   60.3964 N.am    1  ZINC000800038938   -0.6000
     18 C18       -12.5158   -1.3297   60.4697 C.2     1  ZINC000800038938    0.5800
     19 O19       -11.6033   -1.8076   61.1153 O.2     1  ZINC000800038938   -0.4900
     20 C20       -13.4658   -2.2157   59.7652 C.ar    1  ZINC000800038938   -0.1100
     21 C21       -13.2025   -2.6278   58.4579 C.ar    1  ZINC000800038938   -0.0700
     22 C22       -14.0943   -3.4555   57.8056 C.ar    1  ZINC000800038938   -0.0400
     23 Cl23      -13.7684   -3.9696   56.1797 Cl      1  ZINC000800038938   -0.0500
     24 C24       -15.2481   -3.8768   58.4452 C.ar    1  ZINC000800038938   -0.0700
     25 C25       -15.5155   -3.4721   59.7403 C.ar    1  ZINC000800038938   -0.1000
     26 C26       -14.6289   -2.6492   60.4068 C.ar    1  ZINC000800038938    0.0100
     27 Cl27      -14.9663   -2.1421   62.0325 Cl      1  ZINC000800038938   -0.0300
     28 C28        -8.2882   -0.1060   63.3117 C.3     1  ZINC000800038938   -0.1200
     29 H29        -8.2375   -1.4189   67.6140 H       1  ZINC000800038938    0.0900
     30 H30        -7.2995    0.0513   67.2575 H       1  ZINC000800038938    0.0400
     31 H31        -9.0780    0.1166   67.2907 H       1  ZINC000800038938    0.0400
     32 H32       -10.2799    0.6119   65.4550 H       1  ZINC000800038938    0.0800
     33 H33        -9.2252    2.0391   65.7012 H       1  ZINC000800038938    0.0800
     34 H34       -10.9104    2.0079   63.5968 H       1  ZINC000800038938    0.0800
     35 H35        -9.2284    2.5838   63.3521 H       1  ZINC000800038938    0.0800
     36 H36       -12.2936    3.0630   61.5618 H       1  ZINC000800038938    0.1000
     37 H37       -11.8393    2.8272   59.8422 H       1  ZINC000800038938    0.0900
     38 H38       -14.4475    2.0257   61.2519 H       1  ZINC000800038938    0.0900
     39 H39       -14.2411    2.8473   59.6685 H       1  ZINC000800038938    0.1000
     40 H40       -14.6615    0.1760   59.7199 H       1  ZINC000800038938    0.0900
     41 H41       -13.4299    0.8479   58.6077 H       1  ZINC000800038938    0.0800
     42 H42       -12.3034   -2.2997   57.9577 H       1  ZINC000800038938    0.1500
     43 H43       -15.9423   -4.5243   57.9303 H       1  ZINC000800038938    0.1500
     44 H44       -16.4174   -3.8041   60.2332 H       1  ZINC000800038938    0.1500
     45 H45        -7.4130    0.2593   62.7745 H       1  ZINC000800038938    0.0900
     46 H46        -8.3387   -1.1930   63.2488 H       1  ZINC000800038938    0.0900
@<TRIPOS>BOND
     1     1     2    1
     2     1    29    1
     3     1    30    1
     4     1    31    1
     5     2     3    1
     6     3     4    1
     7     3    28    1
     8     3     5    1
     9     5     6    1
    10     5    32    1
    11     5    33    1
    12     6     7    1
    13     6    34    1
    14     6    35    1
    15     7     8    1
    16     7     9    1
    17     7    28    1
    18     9    10    1
    19    10    11    2
    20    10    12    1
    21    12    13    1
    22    12    17    1
    23    12    14    1
    24    14    15    1
    25    14    36    1
    26    14    37    1
    27    15    16    1
    28    15    38    1
    29    15    39    1
    30    16    17    1
    31    16    40    1
    32    16    41    1
    33    17    18   am
    34    18    19    2
    35    18    20    1
    36    20    26   ar
    37    20    21   ar
    38    21    22   ar
    39    21    42    1
    40    22    23    1
    41    22    24   ar
    42    24    25   ar
    43    24    43    1
    44    25    26   ar
    45    25    44    1
    46    26    27    1
    47    28    45    1
    48    28    46    1
@<TRIPOS>SUBSTRUCTURE
     1 ZINC000800038938        1 TEMP              0 ****  ****    0 ROOT


##########                                Name:    ZINC000535362552
##########                DOCK_Rotatable_Bonds:                   5
##########                         Heavy_Atoms:                  26
##########                    Molecular_Weight:             416.228
##########                DOCK_Rotatable_Bonds:                   5
##########                       Formal_Charge:         -0.00999981
##########                     HBond_Acceptors:                   6
##########                        HBond_Donors:                   1
##########                         Heavy_Atoms:                  26
##########                          Grid_Score:          -27.501162
##########                     Grid_vdw_energy:          -27.801003
##########                      Grid_es_energy:            0.299841
##########           Internal_energy_repulsive:           22.812922

@<TRIPOS>MOLECULE
ZINC000535362552
 40 43 1 0 0
SMALL
USER_CHARGES


@<TRIPOS>ATOM
      1 C1         -0.4795    3.3112   50.5748 C.3     1  ZINC000535362552    0.0300
      2 O2         -0.0784    3.6544   51.9273 O.3     1  ZINC000535362552   -0.3400
      3 C3         -1.0360    3.6234   52.8765 C.2     1  ZINC000535362552    0.5500
      4 O4         -0.7599    3.9000   54.0278 O.2     1  ZINC000535362552   -0.4800
      5 C5         -2.4116    3.2555   52.5196 C.2     1  ZINC000535362552   -0.0100
      6 C6         -3.4419    3.1354   53.3977 C.2     1  ZINC000535362552   -0.0900
      7 C7         -4.6096    2.7573   52.6028 C.ar    1  ZINC000535362552   -0.1300
      8 C8         -5.9462    2.4885   52.9063 C.ar    1  ZINC000535362552   -0.0600
      9 C9         -6.8205    2.1487   51.8911 C.ar    1  ZINC000535362552    0.1200
     10 N10        -8.1631    1.8778   52.1864 N.am    1  ZINC000535362552   -0.6700
     11 C11        -8.6204    0.6108   52.1425 C.2     1  ZINC000535362552    0.5200
     12 O12        -7.8697   -0.2951   51.8474 O.2     1  ZINC000535362552   -0.5000
     13 C13       -10.0644    0.3195   52.4601 C.3     1  ZINC000535362552   -0.1000
     14 H14       -10.7214    1.0403   51.9734 H       1  ZINC000535362552    0.1300
     15 C15       -10.4377   -1.1274   52.0592 C.3     1  ZINC000535362552    0.0600
     16 O16       -11.3451   -1.5226   53.1020 O.3     1  ZINC000535362552   -0.2900
     17 C17       -11.0494   -0.8340   54.2387 C.ar    1  ZINC000535362552    0.1300
     18 C18       -11.3875   -1.1071   55.5615 C.ar    1  ZINC000535362552   -0.1300
     19 C19       -10.9850   -0.2576   56.5714 C.ar    1  ZINC000535362552   -0.0500
     20 C20       -10.2427    0.8725   56.2795 C.ar    1  ZINC000535362552   -0.1200
     21 Br21       -9.6988    2.0355   57.6679 Br      1  ZINC000535362552   -0.0400
     22 C22        -9.8991    1.1487   54.9669 C.ar    1  ZINC000535362552   -0.0100
     23 C23       -10.2965    0.3002   53.9585 C.ar    1  ZINC000535362552   -0.1600
     24 C24        -6.3698    2.0752   50.5741 C.ar    1  ZINC000535362552   -0.0900
     25 C25        -5.0535    2.3382   50.2661 C.ar    1  ZINC000535362552   -0.0900
     26 C26        -4.1577    2.6822   51.2717 C.ar    1  ZINC000535362552    0.0700
     27 O27        -2.8455    2.9913   51.2694 O.3     1  ZINC000535362552   -0.1700
     28 H28        -1.2492    4.0051   50.2369 H       1  ZINC000535362552    0.0700
     29 H29         0.3838    3.3757   49.9124 H       1  ZINC000535362552    0.1100
     30 H30        -0.8741    2.2953   50.5595 H       1  ZINC000535362552    0.0700
     31 H31        -3.4055    3.2876   54.4663 H       1  ZINC000535362552    0.1800
     32 H32        -6.2940    2.5454   53.9272 H       1  ZINC000535362552    0.1400
     33 H33        -8.7635    2.6023   52.4225 H       1  ZINC000535362552    0.4100
     34 H34       -10.9341   -1.1434   51.0889 H       1  ZINC000535362552    0.1200
     35 H35        -9.5546   -1.7664   52.0529 H       1  ZINC000535362552    0.0900
     36 H36       -11.9670   -1.9873   55.7979 H       1  ZINC000535362552    0.1400
     37 H37       -11.2510   -0.4760   57.5951 H       1  ZINC000535362552    0.1400
     38 H38        -9.3197    2.0299   54.7341 H       1  ZINC000535362552    0.1400
     39 H39        -7.0599    1.8089   49.7871 H       1  ZINC000535362552    0.1500
     40 H40        -4.7168    2.2771   49.2418 H       1  ZINC000535362552    0.1500
@<TRIPOS>BOND
     1     1     2    1
     2     1    28    1
     3     1    29    1
     4     1    30    1
     5     2     3    1
     6     3     4    2
     7     3     5    1
     8     5    27    1
     9     5     6    2
    10     6     7    1
    11     6    31    1
    12     7    26   ar
    13     7     8   ar
    14     8     9   ar
    15     8    32    1
    16     9    10    1
    17     9    24   ar
    18    10    11   am
    19    10    33    1
    20    11    12    2
    21    11    13    1
    22    13    14    1
    23    13    23    1
    24    13    15    1
    25    15    16    1
    26    15    34    1
    27    15    35    1
    28    16    17    1
    29    17    23   ar
    30    17    18   ar
    31    18    19   ar
    32    18    36    1
    33    19    20   ar
    34    19    37    1
    35    20    21    1
    36    20    22   ar
    37    22    23   ar
    38    22    38    1
    39    24    25   ar
    40    24    39    1
    41    25    26   ar
    42    25    40    1
    43    26    27    1
@<TRIPOS>SUBSTRUCTURE
     1 ZINC000535362552        1 TEMP              0 ****  ****    0 ROOT


##########                                Name:    ZINC000611836474
##########                DOCK_Rotatable_Bonds:                   7
##########                         Heavy_Atoms:                  22
##########                    Molecular_Weight:             366.258
##########                DOCK_Rotatable_Bonds:                   7
##########                       Formal_Charge:          -0.0300004
##########                     HBond_Acceptors:                   5
##########                        HBond_Donors:                   1
##########                         Heavy_Atoms:                  22
##########                          Grid_Score:          -27.477711
##########                     Grid_vdw_energy:          -24.749750
##########                      Grid_es_energy:           -2.727961
##########           Internal_energy_repulsive:            8.973421

@<TRIPOS>MOLECULE
ZINC000611836474
 42 43 1 0 0
SMALL
USER_CHARGES


@<TRIPOS>ATOM
      1 C1         -3.3481    3.4207   65.0873 C.3     1  ZINC000611836474   -0.1500
      2 C2         -4.2873    2.5751   65.9498 C.3     1  ZINC000611836474   -0.1400
      3 C3         -5.6347    2.4252   65.2405 C.3     1  ZINC000611836474    0.1300
      4 N4         -6.5069    1.5511   66.0287 N.pl3   1  ZINC000611836474   -0.3900
      5 N5         -6.4932    1.4129   67.4225 N.2     1  ZINC000611836474   -0.2900
      6 C6         -7.4127    0.5454   67.7600 C.2     1  ZINC000611836474    0.0600
      7 C7         -8.0448    0.0997   66.5960 C.2     1  ZINC000611836474   -0.2800
      8 C8         -7.4717    0.7390   65.5398 C.2     1  ZINC000611836474    0.3000
      9 N9         -7.8120    0.5795   64.1966 N.am    1  ZINC000611836474   -0.6500
     10 C10        -9.1082    0.5177   63.8326 C.2     1  ZINC000611836474    0.5200
     11 O11        -9.9789    0.6023   64.6729 O.2     1  ZINC000611836474   -0.4700
     12 C12        -9.4759    0.3436   62.3815 C.3     1  ZINC000611836474    0.0700
     13 H13        -8.6148   -0.0362   61.8317 H       1  ZINC000611836474    0.1100
     14 C14        -9.8995    1.6926   61.7973 C.3     1  ZINC000611836474   -0.1800
     15 O15       -10.5577   -0.5837   62.2722 O.3     1  ZINC000611836474   -0.2700
     16 C16       -10.7797   -1.1313   61.0482 C.ar    1  ZINC000611836474    0.1500
     17 C17        -9.7473   -1.7651   60.3732 C.ar    1  ZINC000611836474   -0.2000
     18 C18        -9.9753   -2.3211   59.1288 C.ar    1  ZINC000611836474   -0.0600
     19 C19       -11.2312   -2.2457   58.5561 C.ar    1  ZINC000611836474   -0.1100
     20 C20       -11.4766   -2.8526   57.1987 C.3     1  ZINC000611836474   -0.1100
     21 C21       -12.2630   -1.6149   59.2267 C.ar    1  ZINC000611836474   -0.0500
     22 C22       -12.0418   -1.0622   60.4740 C.ar    1  ZINC000611836474   -0.1200
     23 Br23      -13.4528   -0.1995   61.3909 Br      1  ZINC000611836474   -0.0300
     24 H24        -2.3883    3.5275   65.5927 H       1  ZINC000611836474    0.0600
     25 H25        -3.1996    2.9313   64.1248 H       1  ZINC000611836474    0.0600
     26 H26        -3.7876    4.4058   64.9302 H       1  ZINC000611836474    0.0600
     27 H27        -3.8479    1.5901   66.1070 H       1  ZINC000611836474    0.0800
     28 H28        -4.4359    3.0645   66.9124 H       1  ZINC000611836474    0.0600
     29 H29        -6.1010    3.4048   65.1356 H       1  ZINC000611836474    0.0800
     30 H30        -5.4792    1.9892   64.2536 H       1  ZINC000611836474    0.1000
     31 H31        -7.6434    0.2275   68.7661 H       1  ZINC000611836474    0.1900
     32 H32        -8.8474   -0.6210   66.5440 H       1  ZINC000611836474    0.1700
     33 H33        -7.1158    0.5132   63.5245 H       1  ZINC000611836474    0.4100
     34 H34        -9.0743    2.3999   61.8807 H       1  ZINC000611836474    0.0800
     35 H35       -10.1654    1.5666   60.7477 H       1  ZINC000611836474    0.0800
     36 H36       -10.7606    2.0724   62.3472 H       1  ZINC000611836474    0.0800
     37 H37        -8.7655   -1.8238   60.8196 H       1  ZINC000611836474    0.1400
     38 H38        -9.1714   -2.8147   58.6030 H       1  ZINC000611836474    0.1300
     39 H39       -11.7918   -3.8895   57.3159 H       1  ZINC000611836474    0.0700
     40 H40       -12.2572   -2.2913   56.6855 H       1  ZINC000611836474    0.0700
     41 H41       -10.5580   -2.8161   56.6130 H       1  ZINC000611836474    0.0700
     42 H42       -13.2433   -1.5573   58.7772 H       1  ZINC000611836474    0.1400
@<TRIPOS>BOND
     1     1     2    1
     2     1    24    1
     3     1    25    1
     4     1    26    1
     5     2     3    1
     6     2    27    1
     7     2    28    1
     8     3     4    1
     9     3    29    1
    10     3    30    1
    11     4     8    1
    12     4     5    1
    13     5     6    2
    14     6     7    1
    15     6    31    1
    16     7     8    2
    17     7    32    1
    18     8     9    1
    19     9    10   am
    20     9    33    1
    21    10    11    2
    22    10    12    1
    23    12    13    1
    24    12    14    1
    25    12    15    1
    26    14    34    1
    27    14    35    1
    28    14    36    1
    29    15    16    1
    30    16    22   ar
    31    16    17   ar
    32    17    18   ar
    33    17    37    1
    34    18    19   ar
    35    18    38    1
    36    19    20    1
    37    19    21   ar
    38    20    39    1
    39    20    40    1
    40    20    41    1
    41    21    22   ar
    42    21    42    1
    43    22    23    1
@<TRIPOS>SUBSTRUCTURE
     1 ZINC000611836474        1 TEMP              0 ****  ****    0 ROOT


##########                                Name:    ZINC000616491533
##########                DOCK_Rotatable_Bonds:                   4
##########                         Heavy_Atoms:                  27
##########                    Molecular_Weight:             375.418
##########                DOCK_Rotatable_Bonds:                   4
##########                       Formal_Charge:           0.0299996
##########                     HBond_Acceptors:                   7
##########                        HBond_Donors:                   0
##########                         Heavy_Atoms:                  27
##########                          Grid_Score:          -27.459658
##########                     Grid_vdw_energy:          -26.441050
##########                      Grid_es_energy:           -1.018608
##########           Internal_energy_repulsive:            8.944175

@<TRIPOS>MOLECULE
ZINC000616491533
 50 53 1 0 0
SMALL
USER_CHARGES


@<TRIPOS>ATOM
      1 C1        -12.5968   -1.6312   53.9144 C.3     1  ZINC000616491533   -0.1700
      2 C2        -13.4218   -0.9495   55.0077 C.3     1  ZINC000616491533    0.1400
      3 H3        -13.4689    0.1235   54.8217 H       1  ZINC000616491533    0.0800
      4 C4        -14.8485   -1.5410   55.0349 C.3     1  ZINC000616491533   -0.1200
      5 C5        -14.7701   -2.5749   56.1774 C.3     1  ZINC000616491533   -0.0700
      6 C6        -13.8032   -1.9036   57.1714 C.3     1  ZINC000616491533    0.0900
      7 N7        -12.8148   -1.2027   56.3234 N.am    1  ZINC000616491533   -0.6100
      8 C8        -11.5661   -0.8577   56.6949 C.2     1  ZINC000616491533    0.6100
      9 O9        -10.8350   -0.2839   55.9105 O.2     1  ZINC000616491533   -0.5200
     10 C10       -11.0865   -1.1755   58.0521 C.2     1  ZINC000616491533   -0.2400
     11 C11       -10.8282   -0.2711   59.0627 C.2     1  ZINC000616491533    0.0700
     12 C12       -10.9845    1.2255   58.9824 C.3     1  ZINC000616491533    0.3400
     13 F13       -10.1157    1.7337   58.0107 F       1  ZINC000616491533   -0.1900
     14 F14       -12.3037    1.5388   58.6382 F       1  ZINC000616491533   -0.1600
     15 N15       -10.4118   -0.9724   60.1328 N.pl3   1  ZINC000616491533   -0.2900
     16 C16       -10.0455   -0.4334   61.3736 C.ar    1  ZINC000616491533    0.1300
     17 C17        -8.7128   -0.4269   61.7631 C.ar    1  ZINC000616491533   -0.1000
     18 C18        -8.3549    0.1050   62.9864 C.ar    1  ZINC000616491533   -0.1000
     19 C19        -9.3224    0.6304   63.8232 C.ar    1  ZINC000616491533   -0.1000
     20 C20       -10.6504    0.6253   63.4382 C.ar    1  ZINC000616491533   -0.1000
     21 C21       -11.0138    0.1005   62.2134 C.ar    1  ZINC000616491533   -0.0900
     22 N22       -10.4062   -2.3310   59.7974 N.2     1  ZINC000616491533   -0.2600
     23 C23       -10.8107   -2.4637   58.5640 C.2     1  ZINC000616491533    0.0700
     24 C24       -16.1384   -2.7796   56.8113 C.3     1  ZINC000616491533   -0.1400
     25 C25       -16.0326   -3.8440   57.9091 C.3     1  ZINC000616491533    0.0600
     26 O26       -15.4950   -5.0451   57.3515 O.3     1  ZINC000616491533   -0.3800
     27 C27       -14.1758   -4.9068   56.8196 C.3     1  ZINC000616491533    0.0600
     28 C28       -14.1964   -3.8908   55.6722 C.3     1  ZINC000616491533   -0.1500
     29 H29       -12.5434   -2.7014   54.1135 H       1  ZINC000616491533    0.0600
     30 H30       -13.0688   -1.4648   52.9461 H       1  ZINC000616491533    0.0600
     31 H31       -11.5903   -1.2127   53.9046 H       1  ZINC000616491533    0.0800
     32 H32       -15.5824   -0.7681   55.2635 H       1  ZINC000616491533    0.0800
     33 H33       -15.0822   -2.0287   54.0885 H       1  ZINC000616491533    0.0900
     34 H34       -14.3380   -1.1896   57.7977 H       1  ZINC000616491533    0.0800
     35 H35       -13.3097   -2.6553   57.7875 H       1  ZINC000616491533    0.0800
     36 H36       -10.7464    1.6681   59.9497 H       1  ZINC000616491533    0.1400
     37 H37        -7.9568   -0.8377   61.1103 H       1  ZINC000616491533    0.1300
     38 H38        -7.3184    0.1103   63.2900 H       1  ZINC000616491533    0.1400
     39 H39        -9.0401    1.0450   64.7797 H       1  ZINC000616491533    0.1300
     40 H40       -11.4038    1.0364   64.0938 H       1  ZINC000616491533    0.1400
     41 H41       -12.0513    0.0968   61.9131 H       1  ZINC000616491533    0.1300
     42 H42       -10.9113   -3.3948   58.0262 H       1  ZINC000616491533    0.2100
     43 H43       -16.4821   -1.8411   57.2463 H       1  ZINC000616491533    0.0800
     44 H44       -16.8462   -3.1099   56.0510 H       1  ZINC000616491533    0.0800
     45 H45       -15.3763   -3.4852   58.7019 H       1  ZINC000616491533    0.0500
     46 H46       -17.0228   -4.0442   58.3185 H       1  ZINC000616491533    0.1000
     47 H47       -13.5025   -4.5579   57.6025 H       1  ZINC000616491533    0.0500
     48 H48       -13.8313   -5.8710   56.4457 H       1  ZINC000616491533    0.1000
     49 H49       -14.8170   -4.2708   54.8607 H       1  ZINC000616491533    0.0800
     50 H50       -13.1810   -3.7300   55.3101 H       1  ZINC000616491533    0.0800
@<TRIPOS>BOND
     1     1     2    1
     2     1    29    1
     3     1    30    1
     4     1    31    1
     5     2     3    1
     6     2     7    1
     7     2     4    1
     8     4     5    1
     9     4    32    1
    10     4    33    1
    11     5    28    1
    12     5     6    1
    13     5    24    1
    14     6     7    1
    15     6    34    1
    16     6    35    1
    17     7     8   am
    18     8     9    2
    19     8    10    1
    20    10    23    1
    21    10    11    2
    22    11    12    1
    23    11    15    1
    24    12    13    1
    25    12    14    1
    26    12    36    1
    27    15    16    1
    28    15    22    1
    29    16    21   ar
    30    16    17   ar
    31    17    18   ar
    32    17    37    1
    33    18    19   ar
    34    18    38    1
    35    19    20   ar
    36    19    39    1
    37    20    21   ar
    38    20    40    1
    39    21    41    1
    40    22    23    2
    41    23    42    1
    42    24    25    1
    43    24    43    1
    44    24    44    1
    45    25    26    1
    46    25    45    1
    47    25    46    1
    48    26    27    1
    49    27    28    1
    50    27    47    1
    51    27    48    1
    52    28    49    1
    53    28    50    1
@<TRIPOS>SUBSTRUCTURE
     1 ZINC000616491533        1 TEMP              0 ****  ****    0 ROOT


##########                                Name:    ZINC000587344575
##########                DOCK_Rotatable_Bonds:                   7
##########                         Heavy_Atoms:                  30
##########                    Molecular_Weight:             408.475
##########                DOCK_Rotatable_Bonds:                   7
##########                       Formal_Charge:          -0.0100002
##########                     HBond_Acceptors:                   7
##########                        HBond_Donors:                   2
##########                         Heavy_Atoms:                  30
##########                          Grid_Score:          -27.437492
##########                     Grid_vdw_energy:          -25.843868
##########                      Grid_es_energy:           -1.593623
##########           Internal_energy_repulsive:           11.134069

@<TRIPOS>MOLECULE
ZINC000587344575
 55 57 1 0 0
SMALL
USER_CHARGES


@<TRIPOS>ATOM
      1 C1        -13.8476    1.9410   60.6028 C.3     1  ZINC000587344575   -0.1200
      2 C2        -12.5350    1.2599   60.3126 C.ar    1  ZINC000587344575    0.0000
      3 C3        -11.4587    1.9968   59.8730 C.ar    1  ZINC000587344575   -0.1600
      4 C4        -10.2462    1.3688   59.6053 C.ar    1  ZINC000587344575    0.1800
      5 N5         -9.1578    2.1184   59.1606 N.am    1  ZINC000587344575   -0.6700
      6 C6         -8.9760    2.3253   57.8413 C.2     1  ZINC000587344575    0.5200
      7 O7         -9.7591    1.8594   57.0409 O.2     1  ZINC000587344575   -0.5000
      8 C8         -7.7997    3.1355   57.3605 C.3     1  ZINC000587344575   -0.1200
      9 H9         -7.1237    3.3479   58.1887 H       1  ZINC000587344575    0.1100
     10 C10        -8.2845    4.4526   56.7123 C.3     1  ZINC000587344575   -0.1200
     11 C11        -7.3293    4.6158   55.5033 C.3     1  ZINC000587344575    0.0400
     12 N12        -7.1471    3.2220   55.0235 N.3     1  ZINC000587344575   -0.4800
     13 C13        -5.9935    3.1066   54.2507 C.ar    1  ZINC000587344575    0.0700
     14 C14        -4.7584    3.4441   54.7933 C.ar    1  ZINC000587344575   -0.1200
     15 C15        -3.6158    3.3319   54.0325 C.ar    1  ZINC000587344575   -0.0700
     16 C16        -3.6974    2.8776   52.7134 C.ar    1  ZINC000587344575    0.0000
     17 C17        -2.5108    2.7596   51.9205 C.1     1  ZINC000587344575    0.2500
     18 N18        -1.5695    2.6660   51.2914 N.1     1  ZINC000587344575   -0.4000
     19 C19        -4.9403    2.5381   52.1694 C.ar    1  ZINC000587344575   -0.1000
     20 C20        -6.0792    2.6477   52.9375 C.ar    1  ZINC000587344575    0.1300
     21 F21        -7.2806    2.3197   52.4139 F       1  ZINC000587344575   -0.1200
     22 C22        -7.0548    2.3843   56.2416 C.3     1  ZINC000587344575    0.0500
     23 C23       -10.1173   -0.0052   59.7808 C.ar    1  ZINC000587344575   -0.1400
     24 C24       -11.1899   -0.7483   60.2203 C.ar    1  ZINC000587344575   -0.0600
     25 C25       -12.4074   -0.1199   60.4951 C.ar    1  ZINC000587344575   -0.1600
     26 C26       -13.5592   -0.9133   60.9668 C.2     1  ZINC000587344575    0.5600
     27 O27       -13.8199   -0.9602   62.1534 O.2     1  ZINC000587344575   -0.5300
     28 N28       -14.3218   -1.5856   60.0822 N.am    1  ZINC000587344575   -0.7200
     29 C29       -15.4640   -2.3745   60.5506 C.3     1  ZINC000587344575    0.1400
     30 C30       -16.6494   -1.4455   60.8201 C.3     1  ZINC000587344575   -0.1600
     31 C31       -15.8507   -3.3973   59.4802 C.3     1  ZINC000587344575   -0.1600
     32 H32       -13.9192    2.1523   61.6697 H       1  ZINC000587344575    0.0800
     33 H33       -13.9041    2.8745   60.0429 H       1  ZINC000587344575    0.0600
     34 H34       -14.6688    1.2888   60.3056 H       1  ZINC000587344575    0.1000
     35 H35       -11.5555    3.0637   59.7354 H       1  ZINC000587344575    0.1300
     36 H36        -8.5315    2.4910   59.8007 H       1  ZINC000587344575    0.4100
     37 H37        -9.3178    4.3605   56.3777 H       1  ZINC000587344575    0.0900
     38 H38        -8.1753    5.2867   57.4054 H       1  ZINC000587344575    0.0900
     39 H39        -7.7887    5.2318   54.7303 H       1  ZINC000587344575    0.0900
     40 H40        -6.3770    5.0411   55.8201 H       1  ZINC000587344575    0.0600
     41 H41        -4.6951    3.7952   55.8127 H       1  ZINC000587344575    0.1400
     42 H42        -2.6574    3.5951   54.4550 H       1  ZINC000587344575    0.1400
     43 H43        -5.0069    2.1866   51.1504 H       1  ZINC000587344575    0.1500
     44 H44        -6.0096    2.2441   56.5175 H       1  ZINC000587344575    0.0600
     45 H45        -7.5275    1.4182   56.0646 H       1  ZINC000587344575    0.1100
     46 H46        -9.1749   -0.4896   59.5718 H       1  ZINC000587344575    0.1400
     47 H47       -11.0892   -1.8149   60.3563 H       1  ZINC000587344575    0.1300
     48 H48       -14.1146   -1.5473   59.1354 H       1  ZINC000587344575    0.4000
     49 H49       -15.1939   -2.8949   61.4695 H       1  ZINC000587344575    0.0900
     50 H50       -16.9195   -0.9252   59.9012 H       1  ZINC000587344575    0.0600
     51 H51       -17.4991   -2.0324   61.1686 H       1  ZINC000587344575    0.0700
     52 H52       -16.3739   -0.7169   61.5827 H       1  ZINC000587344575    0.0600
     53 H53       -16.1209   -2.8770   58.5613 H       1  ZINC000587344575    0.0600
     54 H54       -15.0063   -4.0591   59.2882 H       1  ZINC000587344575    0.0600
     55 H55       -16.7005   -3.9842   59.8287 H       1  ZINC000587344575    0.0700
@<TRIPOS>BOND
     1     1     2    1
     2     1    32    1
     3     1    33    1
     4     1    34    1
     5     2    25   ar
     6     2     3   ar
     7     3     4   ar
     8     3    35    1
     9     4     5    1
    10     4    23   ar
    11     5     6   am
    12     5    36    1
    13     6     7    2
    14     6     8    1
    15     8     9    1
    16     8    22    1
    17     8    10    1
    18    10    11    1
    19    10    37    1
    20    10    38    1
    21    11    12    1
    22    11    39    1
    23    11    40    1
    24    12    13    1
    25    12    22    1
    26    13    20   ar
    27    13    14   ar
    28    14    15   ar
    29    14    41    1
    30    15    16   ar
    31    15    42    1
    32    16    17    1
    33    16    19   ar
    34    17    18    3
    35    19    20   ar
    36    19    43    1
    37    20    21    1
    38    22    44    1
    39    22    45    1
    40    23    24   ar
    41    23    46    1
    42    24    25   ar
    43    24    47    1
    44    25    26    1
    45    26    27    2
    46    26    28   am
    47    28    29    1
    48    28    48    1
    49    29    30    1
    50    29    31    1
    51    29    49    1
    52    30    50    1
    53    30    51    1
    54    30    52    1
    55    31    53    1
    56    31    54    1
    57    31    55    1
@<TRIPOS>SUBSTRUCTURE
     1 ZINC000587344575        1 TEMP              0 ****  ****    0 ROOT


##########                                Name:    ZINC000478980774
##########                DOCK_Rotatable_Bonds:                   4
##########                         Heavy_Atoms:                  26
##########                    Molecular_Weight:             401.818
##########                DOCK_Rotatable_Bonds:                   4
##########                       Formal_Charge:          -0.0100001
##########                     HBond_Acceptors:                   9
##########                        HBond_Donors:                   1
##########                         Heavy_Atoms:                  26
##########                          Grid_Score:          -27.423241
##########                     Grid_vdw_energy:          -28.840096
##########                      Grid_es_energy:            1.416855
##########           Internal_energy_repulsive:            6.450541

@<TRIPOS>MOLECULE
ZINC000478980774
 40 42 1 0 0
SMALL
USER_CHARGES


@<TRIPOS>ATOM
      1 C1         -3.9924    2.8107   49.6461 C.3     1  ZINC000478980774   -0.1400
      2 C2         -4.4816    3.6391   50.8357 C.3     1  ZINC000478980774   -0.4600
      3 H3         -4.7335    4.6448   50.4992 H       1  ZINC000478980774    0.1500
      4 C4         -5.7030    2.9885   51.4324 C.2     1  ZINC000478980774    0.5400
      5 O5         -5.7778    2.8243   52.6319 O.2     1  ZINC000478980774   -0.5000
      6 N6         -6.7121    2.5891   50.6333 N.am    1  ZINC000478980774   -0.6600
      7 C7         -7.8475    1.9843   51.1881 C.ar    1  ZINC000478980774    0.1600
      8 C8         -8.9751    2.7456   51.4631 C.ar    1  ZINC000478980774   -0.1200
      9 C9        -10.0960    2.1504   52.0109 C.ar    1  ZINC000478980774   -0.0600
     10 C10       -10.0974    0.7931   52.2870 C.ar    1  ZINC000478980774    0.0100
     11 O11       -11.0571   -0.0205   52.8187 O.3     1  ZINC000478980774   -0.2900
     12 C12       -10.6508   -1.3614   52.4871 C.3     1  ZINC000478980774    0.5700
     13 F13       -11.0032   -2.2489   53.5097 F       1  ZINC000478980774   -0.1100
     14 F14       -11.2200   -1.7614   51.2733 F       1  ZINC000478980774   -0.1500
     15 O15        -9.2189   -1.2664   52.3709 O.3     1  ZINC000478980774   -0.2800
     16 C16        -8.9671    0.0263   52.0117 C.ar    1  ZINC000478980774    0.0500
     17 C17        -7.8470    0.6222   51.4577 C.ar    1  ZINC000478980774   -0.0900
     18 S18        -3.1725    3.7306   52.0881 S.o     1  ZINC000478980774    1.3000
     19 O19        -2.8666    2.4221   52.5501 O.2     1  ZINC000478980774   -0.7800
     20 C20        -1.7617    4.3879   51.1563 C.3     1  ZINC000478980774   -0.4300
     21 C21        -0.5738    4.5246   52.0735 C.ar    1  ZINC000478980774   -0.0600
     22 C22        -0.3721    5.6994   52.7727 C.ar    1  ZINC000478980774   -0.1100
     23 C23         0.7177    5.8251   53.6143 C.ar    1  ZINC000478980774   -0.1100
     24 C24         1.6065    4.7761   53.7562 C.ar    1  ZINC000478980774   -0.1100
     25 C25         1.4058    3.6004   53.0573 C.ar    1  ZINC000478980774   -0.1100
     26 C26         0.3122    3.4719   52.2200 C.ar    1  ZINC000478980774   -0.0300
     27 Cl27        0.0596    1.9958   51.3419 Cl      1  ZINC000478980774   -0.0600
     28 H28        -3.1090    3.2813   49.2145 H       1  ZINC000478980774    0.0800
     29 H29        -3.7405    1.8051   49.9826 H       1  ZINC000478980774    0.0700
     30 H30        -4.7790    2.7557   48.8936 H       1  ZINC000478980774    0.0700
     31 H31        -6.6522    2.7202   49.6742 H       1  ZINC000478980774    0.4200
     32 H32        -8.9766    3.8042   51.2491 H       1  ZINC000478980774    0.1500
     33 H33       -10.9720    2.7448   52.2242 H       1  ZINC000478980774    0.1500
     34 H34        -6.9717    0.0287   51.2390 H       1  ZINC000478980774    0.1600
     35 H35        -1.5152    3.7069   50.3417 H       1  ZINC000478980774    0.1100
     36 H36        -2.0196    5.3649   50.7477 H       1  ZINC000478980774    0.1300
     37 H37        -1.0658    6.5197   52.6616 H       1  ZINC000478980774    0.1400
     38 H38         0.8749    6.7434   54.1605 H       1  ZINC000478980774    0.1300
     39 H39         2.4580    4.8750   54.4131 H       1  ZINC000478980774    0.1300
     40 H40         2.1003    2.7808   53.1684 H       1  ZINC000478980774    0.1300
@<TRIPOS>BOND
     1     1     2    1
     2     1    28    1
     3     1    29    1
     4     1    30    1
     5     2     3    1
     6     2     4    1
     7     2    18    1
     8     4     5    2
     9     4     6   am
    10     6     7    1
    11     6    31    1
    12     7    17   ar
    13     7     8   ar
    14     8     9   ar
    15     8    32    1
    16     9    10   ar
    17     9    33    1
    18    10    16   ar
    19    10    11    1
    20    11    12    1
    21    12    13    1
    22    12    14    1
    23    12    15    1
    24    15    16    1
    25    16    17   ar
    26    17    34    1
    27    18    19    2
    28    18    20    1
    29    20    21    1
    30    20    35    1
    31    20    36    1
    32    21    26   ar
    33    21    22   ar
    34    22    23   ar
    35    22    37    1
    36    23    24   ar
    37    23    38    1
    38    24    25   ar
    39    24    39    1
    40    25    26   ar
    41    25    40    1
    42    26    27    1
@<TRIPOS>SUBSTRUCTURE
     1 ZINC000478980774        1 TEMP              0 ****  ****    0 ROOT


##########                                Name:    ZINC001079355651
##########                DOCK_Rotatable_Bonds:                   5
##########                         Heavy_Atoms:                  25
##########                    Molecular_Weight:             353.851
##########                DOCK_Rotatable_Bonds:                   5
##########                       Formal_Charge:           0.0199997
##########                     HBond_Acceptors:                   5
##########                        HBond_Donors:                   1
##########                         Heavy_Atoms:                  25
##########                          Grid_Score:          -27.418882
##########                     Grid_vdw_energy:          -27.852579
##########                      Grid_es_energy:            0.433696
##########           Internal_energy_repulsive:           26.366959

@<TRIPOS>MOLECULE
ZINC001079355651
 45 47 1 0 0
SMALL
USER_CHARGES


@<TRIPOS>ATOM
      1 C1        -10.2255    0.5338   52.8348 C.3     1  ZINC001079355651   -0.1500
      2 C2         -8.9941    1.3776   53.1706 C.3     1  ZINC001079355651   -0.1000
      3 H3         -8.0885    0.7782   53.0780 H       1  ZINC001079355651    0.0900
      4 C4         -9.1121    1.9538   54.5980 C.3     1  ZINC001079355651    0.0300
      5 N5         -8.5234    3.3144   54.5022 N.3     1  ZINC001079355651   -0.5100
      6 C6         -8.9894    4.1683   55.6029 C.3     1  ZINC001079355651    0.1600
      7 C7         -9.0567    3.3776   56.8427 C.1     1  ZINC001079355651   -0.1400
      8 C8         -9.1104    2.7470   57.8314 C.1     1  ZINC001079355651   -0.1300
      9 C9         -9.1758    1.9777   59.0374 C.ar    1  ZINC001079355651    0.0300
     10 C10        -9.4958    2.5965   60.2464 C.ar    1  ZINC001079355651   -0.0900
     11 C11        -9.5574    1.8502   61.4056 C.ar    1  ZINC001079355651   -0.1000
     12 C12        -9.3028    0.4912   61.3713 C.ar    1  ZINC001079355651   -0.1000
     13 C13        -8.9841   -0.1294   60.1751 C.ar    1  ZINC001079355651   -0.0300
     14 Cl14       -8.6655   -1.8356   60.1421 Cl      1  ZINC001079355651   -0.0600
     15 C15        -8.9254    0.6053   59.0075 C.ar    1  ZINC001079355651   -0.0900
     16 C16        -9.0003    3.8270   53.1920 C.3     1  ZINC001079355651    0.0200
     17 C17        -8.9192    2.6085   52.2439 C.3     1  ZINC001079355651    0.1500
     18 H18        -9.7600    2.6118   51.5503 H       1  ZINC001079355651    0.1000
     19 N19        -7.6529    2.6204   51.5071 N.am    1  ZINC001079355651   -0.7100
     20 C20        -6.4869    2.4824   52.1688 C.2     1  ZINC001079355651    0.5600
     21 O21        -6.4859    2.3467   53.3763 O.2     1  ZINC001079355651   -0.5300
     22 C22        -5.2064    2.4962   51.4238 C.ar    1  ZINC001079355651   -0.0900
     23 C23        -5.1853    2.6467   50.0340 C.ar    1  ZINC001079355651   -0.1400
     24 C24        -3.9688    2.6539   49.3794 C.ar    1  ZINC001079355651    0.1000
     25 N25        -2.8400    2.5216   50.0472 N.ar    1  ZINC001079355651   -0.4700
     26 C26        -2.8152    2.3775   51.3573 C.ar    1  ZINC001079355651    0.1000
     27 C27        -3.9852    2.3649   52.0918 C.ar    1  ZINC001079355651   -0.1200
     28 H28       -10.1515    0.1757   51.8079 H       1  ZINC001079355651    0.0600
     29 H29       -10.2788   -0.3174   53.5135 H       1  ZINC001079355651    0.0700
     30 H30       -11.1235    1.1420   52.9436 H       1  ZINC001079355651    0.0600
     31 H31       -10.1581    2.0125   54.8990 H       1  ZINC001079355651    0.0600
     32 H32        -8.5466    1.3436   55.3022 H       1  ZINC001079355651    0.0900
     33 H33        -8.2952    4.9978   55.7382 H       1  ZINC001079355651    0.0700
     34 H34        -9.9795    4.5581   55.3663 H       1  ZINC001079355651    0.1100
     35 H35        -9.6945    3.6576   60.2750 H       1  ZINC001079355651    0.1300
     36 H36        -9.8046    2.3285   62.3418 H       1  ZINC001079355651    0.1400
     37 H37        -9.3522   -0.0883   62.2813 H       1  ZINC001079355651    0.1400
     38 H38        -8.6769    0.1207   58.0749 H       1  ZINC001079355651    0.1400
     39 H39       -10.0288    4.1789   53.2730 H       1  ZINC001079355651    0.0600
     40 H40        -8.3506    4.6273   52.8376 H       1  ZINC001079355651    0.0900
     41 H41        -7.6538    2.7275   50.5430 H       1  ZINC001079355651    0.4000
     42 H42        -6.1062    2.7552   49.4803 H       1  ZINC001079355651    0.1400
     43 H43        -3.9421    2.7692   48.3059 H       1  ZINC001079355651    0.1600
     44 H44        -1.8671    2.2720   51.8636 H       1  ZINC001079355651    0.1700
     45 H45        -3.9573    2.2464   53.1649 H       1  ZINC001079355651    0.1500
@<TRIPOS>BOND
     1     1     2    1
     2     1    28    1
     3     1    29    1
     4     1    30    1
     5     2     3    1
     6     2    17    1
     7     2     4    1
     8     4     5    1
     9     4    31    1
    10     4    32    1
    11     5     6    1
    12     5    16    1
    13     6     7    1
    14     6    33    1
    15     6    34    1
    16     7     8    3
    17     8     9    1
    18     9    15   ar
    19     9    10   ar
    20    10    11   ar
    21    10    35    1
    22    11    12   ar
    23    11    36    1
    24    12    13   ar
    25    12    37    1
    26    13    14    1
    27    13    15   ar
    28    15    38    1
    29    16    17    1
    30    16    39    1
    31    16    40    1
    32    17    18    1
    33    17    19    1
    34    19    20   am
    35    19    41    1
    36    20    21    2
    37    20    22    1
    38    22    27   ar
    39    22    23   ar
    40    23    24   ar
    41    23    42    1
    42    24    25   ar
    43    24    43    1
    44    25    26   ar
    45    26    27   ar
    46    26    44    1
    47    27    45    1
@<TRIPOS>SUBSTRUCTURE
     1 ZINC001079355651        1 TEMP              0 ****  ****    0 ROOT


##########                                Name:    ZINC001272744746
##########                DOCK_Rotatable_Bonds:                   6
##########                         Heavy_Atoms:                  25
##########                    Molecular_Weight:             348.417
##########                DOCK_Rotatable_Bonds:                   6
##########                       Formal_Charge:           0.0299999
##########                     HBond_Acceptors:                   6
##########                        HBond_Donors:                   1
##########                         Heavy_Atoms:                  25
##########                          Grid_Score:          -27.408323
##########                     Grid_vdw_energy:          -27.122131
##########                      Grid_es_energy:           -0.286192
##########           Internal_energy_repulsive:           24.961241

@<TRIPOS>MOLECULE
ZINC001272744746
 50 52 1 0 0
SMALL
USER_CHARGES


@<TRIPOS>ATOM
      1 C1        -15.3868   -2.7392   60.8423 C.2     1  ZINC001272744746   -0.1700
      2 C2        -15.2583   -2.2460   59.6355 C.2     1  ZINC001272744746   -0.1700
      3 C3        -14.7821   -3.1260   58.5086 C.3     1  ZINC001272744746    0.1500
      4 N4        -13.4657   -2.6695   58.0556 N.am    1  ZINC001272744746   -0.6100
      5 C5        -12.7500   -1.5157   58.6167 C.3     1  ZINC001272744746    0.0700
      6 C6        -11.2930   -1.6738   58.1493 C.3     1  ZINC001272744746    0.1100
      7 C7        -11.4432   -2.5262   56.8761 C.3     1  ZINC001272744746   -0.1500
      8 C8        -12.7546   -3.2563   57.0763 C.2     1  ZINC001272744746    0.5200
      9 O9        -13.1148   -4.2246   56.4410 O.2     1  ZINC001272744746   -0.5200
     10 C10       -10.4726   -2.4157   59.1955 C.3     1  ZINC001272744746   -0.1000
     11 C11       -10.3585   -1.5530   60.4570 C.3     1  ZINC001272744746   -0.1200
     12 C12        -9.7500   -0.1985   60.0831 C.3     1  ZINC001272744746   -0.1200
     13 C13       -10.6274    0.4795   59.0285 C.3     1  ZINC001272744746    0.0500
     14 N14       -10.7070   -0.3744   57.8348 N.3     1  ZINC001272744746   -0.5100
     15 C15       -11.4524    0.2928   56.7590 C.3     1  ZINC001272744746    0.0800
     16 C16       -10.5451    0.5018   55.5740 C.ar    1  ZINC001272744746   -0.0200
     17 C17        -9.3911    1.2497   55.7128 C.ar    1  ZINC001272744746   -0.1700
     18 C18        -8.5546    1.4445   54.6268 C.ar    1  ZINC001272744746    0.1200
     19 F19        -7.4271    2.1760   54.7647 F       1  ZINC001272744746   -0.1200
     20 C20        -8.8745    0.8877   53.3973 C.ar    1  ZINC001272744746    0.0400
     21 O21        -8.0540    1.0771   52.3288 O.3     1  ZINC001272744746   -0.4700
     22 C22       -10.0360    0.1348   53.2595 C.ar    1  ZINC001272744746    0.1300
     23 O23       -10.3537   -0.4134   52.0563 O.3     1  ZINC001272744746   -0.3000
     24 C24       -11.5446   -1.2009   51.9964 C.3     1  ZINC001272744746    0.0200
     25 C25       -10.8661   -0.0599   54.3520 C.ar    1  ZINC001272744746   -0.1800
     26 H26       -15.1515   -3.7765   61.0297 H       1  ZINC001272744746    0.1000
     27 H27       -15.7239   -2.1075   61.6508 H       1  ZINC001272744746    0.1000
     28 H28       -15.4937   -1.2087   59.4482 H       1  ZINC001272744746    0.1100
     29 H29       -14.7092   -4.1559   58.8577 H       1  ZINC001272744746    0.0900
     30 H30       -15.4899   -3.0719   57.6814 H       1  ZINC001272744746    0.0800
     31 H31       -13.1712   -0.5867   58.2325 H       1  ZINC001272744746    0.0700
     32 H32       -12.8013   -1.5325   59.7054 H       1  ZINC001272744746    0.0900
     33 H33       -11.4874   -1.8890   55.9928 H       1  ZINC001272744746    0.1100
     34 H34       -10.6217   -3.2380   56.7938 H       1  ZINC001272744746    0.1100
     35 H35       -10.9636   -3.3571   59.4419 H       1  ZINC001272744746    0.0700
     36 H36        -9.4767   -2.6168   58.8011 H       1  ZINC001272744746    0.0800
     37 H37       -11.3491   -1.4017   60.8860 H       1  ZINC001272744746    0.0600
     38 H38        -9.7176   -2.0525   61.1835 H       1  ZINC001272744746    0.0700
     39 H39        -9.6945    0.4325   60.9701 H       1  ZINC001272744746    0.0700
     40 H40        -8.7482   -0.3487   59.6804 H       1  ZINC001272744746    0.0700
     41 H41       -11.6280    0.6332   59.4326 H       1  ZINC001272744746    0.0400
     42 H42       -10.1930    1.4420   58.7584 H       1  ZINC001272744746    0.0900
     43 H43       -12.2982   -0.3283   56.4639 H       1  ZINC001272744746    0.1000
     44 H44       -11.8159    1.2574   57.1129 H       1  ZINC001272744746    0.0600
     45 H45        -9.1417    1.6835   56.6699 H       1  ZINC001272744746    0.1400
     46 H46        -7.2610    1.5932   52.5284 H       1  ZINC001272744746    0.3900
     47 H47       -12.4011   -0.5862   52.2734 H       1  ZINC001272744746    0.0600
     48 H48       -11.6806   -1.5776   50.9826 H       1  ZINC001272744746    0.1100
     49 H49       -11.4608   -2.0397   52.6874 H       1  ZINC001272744746    0.0600
     50 H50       -11.7683   -0.6441   54.2470 H       1  ZINC001272744746    0.1400
@<TRIPOS>BOND
     1     1     2    2
     2     1    26    1
     3     1    27    1
     4     2     3    1
     5     2    28    1
     6     3     4    1
     7     3    29    1
     8     3    30    1
     9     4     8   am
    10     4     5    1
    11     5     6    1
    12     5    31    1
    13     5    32    1
    14     6    14    1
    15     6     7    1
    16     6    10    1
    17     7     8    1
    18     7    33    1
    19     7    34    1
    20     8     9    2
    21    10    11    1
    22    10    35    1
    23    10    36    1
    24    11    12    1
    25    11    37    1
    26    11    38    1
    27    12    13    1
    28    12    39    1
    29    12    40    1
    30    13    14    1
    31    13    41    1
    32    13    42    1
    33    14    15    1
    34    15    16    1
    35    15    43    1
    36    15    44    1
    37    16    25   ar
    38    16    17   ar
    39    17    18   ar
    40    17    45    1
    41    18    19    1
    42    18    20   ar
    43    20    21    1
    44    20    22   ar
    45    21    46    1
    46    22    23    1
    47    22    25   ar
    48    23    24    1
    49    24    47    1
    50    24    48    1
    51    24    49    1
    52    25    50    1
@<TRIPOS>SUBSTRUCTURE
     1 ZINC001272744746        1 TEMP              0 ****  ****    0 ROOT


##########                                Name:    ZINC001098311495
##########                DOCK_Rotatable_Bonds:                   8
##########                         Heavy_Atoms:                  24
##########                    Molecular_Weight:             328.454
##########                DOCK_Rotatable_Bonds:                   8
##########                       Formal_Charge:          0.00999987
##########                     HBond_Acceptors:                   4
##########                        HBond_Donors:                   1
##########                         Heavy_Atoms:                  24
##########                          Grid_Score:          -27.394823
##########                     Grid_vdw_energy:          -26.746014
##########                      Grid_es_energy:           -0.648809
##########           Internal_energy_repulsive:           25.566715

@<TRIPOS>MOLECULE
ZINC001098311495
 52 54 1 0 0
SMALL
USER_CHARGES


@<TRIPOS>ATOM
      1 C1         -4.9598    4.6269   51.4456 C.3     1  ZINC001098311495   -0.1500
      2 C2         -5.7046    3.3214   51.1591 C.3     1  ZINC001098311495    0.0500
      3 O3         -6.6455    3.0704   52.2048 O.3     1  ZINC001098311495   -0.2800
      4 C4         -7.3262    1.8982   52.1525 C.ar    1  ZINC001098311495    0.1900
      5 C5         -7.0700    0.9887   51.1376 C.ar    1  ZINC001098311495   -0.2200
      6 C6         -7.7684   -0.2014   51.0819 C.ar    1  ZINC001098311495   -0.0500
      7 C7         -8.7232   -0.4990   52.0402 C.ar    1  ZINC001098311495   -0.1700
      8 C8         -8.9863    0.3907   53.0595 C.ar    1  ZINC001098311495   -0.0500
      9 C9         -8.2876    1.5981   53.1275 C.ar    1  ZINC001098311495   -0.1800
     10 C10        -8.5642    2.5551   54.2160 C.2     1  ZINC001098311495    0.5600
     11 O11        -8.8888    3.6971   53.9535 O.2     1  ZINC001098311495   -0.5200
     12 N12        -8.4569    2.1634   55.5010 N.am    1  ZINC001098311495   -0.7200
     13 C13        -8.7332    3.1131   56.5818 C.3     1  ZINC001098311495    0.1600
     14 H14        -8.7908    4.1296   56.1924 H       1  ZINC001098311495    0.1000
     15 C15        -7.6542    3.0096   57.6874 C.3     1  ZINC001098311495   -0.1200
     16 C16        -8.4644    2.5815   58.9482 C.3     1  ZINC001098311495    0.0500
     17 H17        -7.8853    2.1092   59.7417 H       1  ZINC001098311495    0.1100
     18 C18        -9.2843    3.8380   59.3698 C.3     1  ZINC001098311495   -0.1500
     19 C19       -10.3714    3.9457   58.2726 C.3     1  ZINC001098311495   -0.1500
     20 C20       -10.0511    2.7336   57.3220 C.3     1  ZINC001098311495    0.0400
     21 H21       -10.8762    2.3994   56.6931 H       1  ZINC001098311495    0.1200
     22 N22        -9.5403    1.7314   58.3242 N.3     1  ZINC001098311495   -0.4900
     23 C23       -10.5790    1.3925   59.3061 C.3     1  ZINC001098311495    0.0600
     24 C24       -10.9945   -0.0444   59.1221 C.2     1  ZINC001098311495   -0.1600
     25 C25       -10.1665   -1.0106   59.4335 C.2     1  ZINC001098311495   -0.1200
     26 C26       -10.5818   -2.4475   59.2496 C.3     1  ZINC001098311495   -0.1200
     27 C27        -8.7986   -0.6851   59.9757 C.3     1  ZINC001098311495   -0.1200
     28 H28        -5.6738    5.4488   51.4969 H       1  ZINC001098311495    0.0700
     29 H29        -4.4329    4.5435   52.3962 H       1  ZINC001098311495    0.0700
     30 H30        -4.2421    4.8183   50.6479 H       1  ZINC001098311495    0.0800
     31 H31        -4.9905    2.4995   51.1078 H       1  ZINC001098311495    0.0600
     32 H32        -6.2315    3.4048   50.2085 H       1  ZINC001098311495    0.0600
     33 H33        -6.3268    1.2134   50.3869 H       1  ZINC001098311495    0.1300
     34 H34        -7.5687   -0.9044   50.2868 H       1  ZINC001098311495    0.1300
     35 H35        -9.2637   -1.4326   51.9886 H       1  ZINC001098311495    0.1300
     36 H36        -9.7318    0.1547   53.8044 H       1  ZINC001098311495    0.1300
     37 H37        -8.1967    1.2527   55.7105 H       1  ZINC001098311495    0.4000
     38 H38        -7.1760    3.9758   57.8486 H       1  ZINC001098311495    0.0800
     39 H39        -6.9139    2.2518   57.4315 H       1  ZINC001098311495    0.0800
     40 H40        -9.7402    3.6881   60.3484 H       1  ZINC001098311495    0.0700
     41 H41        -8.6519    4.7259   59.3719 H       1  ZINC001098311495    0.0800
     42 H42       -11.3663    3.8491   58.7075 H       1  ZINC001098311495    0.0700
     43 H43       -10.2781    4.8869   57.7309 H       1  ZINC001098311495    0.0800
     44 H44       -11.4424    2.0418   59.1604 H       1  ZINC001098311495    0.0500
     45 H45       -10.1861    1.5310   60.3133 H       1  ZINC001098311495    0.0800
     46 H46       -11.9748   -0.2776   58.7336 H       1  ZINC001098311495    0.1100
     47 H47       -11.0578   -2.8077   60.1616 H       1  ZINC001098311495    0.0700
     48 H48        -9.7029   -3.0550   59.0340 H       1  ZINC001098311495    0.0600
     49 H49       -11.2852   -2.5190   58.4201 H       1  ZINC001098311495    0.0600
     50 H50        -8.1129   -0.5053   59.1478 H       1  ZINC001098311495    0.0700
     51 H51        -8.8576    0.2071   60.5990 H       1  ZINC001098311495    0.0600
     52 H52        -8.4358   -1.5220   60.5727 H       1  ZINC001098311495    0.0600
@<TRIPOS>BOND
     1     1     2    1
     2     1    28    1
     3     1    29    1
     4     1    30    1
     5     2     3    1
     6     2    31    1
     7     2    32    1
     8     3     4    1
     9     4     9   ar
    10     4     5   ar
    11     5     6   ar
    12     5    33    1
    13     6     7   ar
    14     6    34    1
    15     7     8   ar
    16     7    35    1
    17     8     9   ar
    18     8    36    1
    19     9    10    1
    20    10    11    2
    21    10    12   am
    22    12    13    1
    23    12    37    1
    24    13    14    1
    25    13    20    1
    26    13    15    1
    27    15    16    1
    28    15    38    1
    29    15    39    1
    30    16    17    1
    31    16    22    1
    32    16    18    1
    33    18    19    1
    34    18    40    1
    35    18    41    1
    36    19    20    1
    37    19    42    1
    38    19    43    1
    39    20    21    1
    40    20    22    1
    41    22    23    1
    42    23    24    1
    43    23    44    1
    44    23    45    1
    45    24    25    2
    46    24    46    1
    47    25    26    1
    48    25    27    1
    49    26    47    1
    50    26    48    1
    51    26    49    1
    52    27    50    1
    53    27    51    1
    54    27    52    1
@<TRIPOS>SUBSTRUCTURE
     1 ZINC001098311495        1 TEMP              0 ****  ****    0 ROOT


##########                                Name:    ZINC000899027326
##########                DOCK_Rotatable_Bonds:                   5
##########                         Heavy_Atoms:                  22
##########                    Molecular_Weight:             346.169
##########                DOCK_Rotatable_Bonds:                   5
##########                       Formal_Charge:           0.0300005
##########                     HBond_Acceptors:                   9
##########                        HBond_Donors:                   1
##########                         Heavy_Atoms:                  22
##########                          Grid_Score:          -27.363108
##########                     Grid_vdw_energy:          -27.030613
##########                      Grid_es_energy:           -0.332495
##########           Internal_energy_repulsive:           12.698802

@<TRIPOS>MOLECULE
ZINC000899027326
 35 36 1 0 0
SMALL
USER_CHARGES


@<TRIPOS>ATOM
      1 C1        -14.9371   -2.4965   59.2852 C.3     1  ZINC000899027326   -0.1500
      2 C2        -13.9357   -2.2594   58.1530 C.3     1  ZINC000899027326    0.1100
      3 H3        -14.4138   -1.7403   57.3222 H       1  ZINC000899027326    0.1400
      4 C4        -12.7396   -1.4749   58.6546 C.2     1  ZINC000899027326    0.5300
      5 O5        -12.7414   -0.3569   59.1233 O.2     1  ZINC000899027326   -0.4500
      6 N6        -11.6738   -2.2792   58.4717 N.am    1  ZINC000899027326   -0.3700
      7 N7        -10.3589   -1.9319   58.8081 N.am    1  ZINC000899027326   -0.5000
      8 C8         -9.9441   -2.0229   60.0873 C.2     1  ZINC000899027326    0.5200
      9 O9        -10.7087   -2.4067   60.9468 O.2     1  ZINC000899027326   -0.4800
     10 C10        -8.5302   -1.6476   60.4494 C.3     1  ZINC000899027326    0.0500
     11 O11        -8.4969   -1.1536   61.7899 O.3     1  ZINC000899027326   -0.2700
     12 C12        -9.0217    0.0817   62.0056 C.ar    1  ZINC000899027326    0.1400
     13 C13        -9.5299    0.8151   60.9444 C.ar    1  ZINC000899027326   -0.1900
     14 C14       -10.0631    2.0707   61.1655 C.ar    1  ZINC000899027326   -0.0600
     15 C15       -10.0902    2.5966   62.4446 C.ar    1  ZINC000899027326   -0.0600
     16 Cl16      -10.7612    4.1740   62.7193 Cl      1  ZINC000899027326   -0.0500
     17 C17        -9.5837    1.8669   63.5059 C.ar    1  ZINC000899027326   -0.0600
     18 C18        -9.0548    0.6084   63.2899 C.ar    1  ZINC000899027326   -0.0500
     19 Cl19       -8.4194   -0.3071   64.6211 Cl      1  ZINC000899027326   -0.0300
     20 C20       -12.0266   -3.4505   57.9299 C.2     1  ZINC000899027326    0.7000
     21 O21       -11.2394   -4.3396   57.6712 O.2     1  ZINC000899027326   -0.5200
     22 N22       -13.3530   -3.5345   57.7009 N.am    1  ZINC000899027326   -0.6200
     23 C23       -14.0708   -4.6722   57.1207 C.3     1  ZINC000899027326    0.1200
     24 H24       -14.4386   -3.0047   60.1107 H       1  ZINC000899027326    0.0700
     25 H25       -15.3282   -1.5396   59.6307 H       1  ZINC000899027326    0.0900
     26 H26       -15.7580   -3.1142   58.9208 H       1  ZINC000899027326    0.0900
     27 H27        -9.7469   -1.6261   58.1204 H       1  ZINC000899027326    0.4300
     28 H28        -7.8894   -2.5258   60.3697 H       1  ZINC000899027326    0.1100
     29 H29        -8.1736   -0.8748   59.7684 H       1  ZINC000899027326    0.1100
     30 H30        -9.5089    0.4054   59.9453 H       1  ZINC000899027326    0.1500
     31 H31       -10.4586    2.6422   60.3388 H       1  ZINC000899027326    0.1500
     32 H32        -9.6058    2.2791   64.5038 H       1  ZINC000899027326    0.1500
     33 H33       -13.3634   -5.4691   56.8907 H       1  ZINC000899027326    0.0900
     34 H34       -14.8100   -5.0373   57.8335 H       1  ZINC000899027326    0.0700
     35 H35       -14.5728   -4.3570   56.2060 H       1  ZINC000899027326    0.0700
@<TRIPOS>BOND
     1     1     2    1
     2     1    24    1
     3     1    25    1
     4     1    26    1
     5     2     3    1
     6     2    22    1
     7     2     4    1
     8     4     5    2
     9     4     6   am
    10     6     7    1
    11     6    20   am
    12     7     8   am
    13     7    27    1
    14     8     9    2
    15     8    10    1
    16    10    11    1
    17    10    28    1
    18    10    29    1
    19    11    12    1
    20    12    18   ar
    21    12    13   ar
    22    13    14   ar
    23    13    30    1
    24    14    15   ar
    25    14    31    1
    26    15    16    1
    27    15    17   ar
    28    17    18   ar
    29    17    32    1
    30    18    19    1
    31    20    21    2
    32    20    22   am
    33    22    23    1
    34    23    33    1
    35    23    34    1
    36    23    35    1
@<TRIPOS>SUBSTRUCTURE
     1 ZINC000899027326        1 TEMP              0 ****  ****    0 ROOT


##########                                Name:    ZINC000442864105
##########                DOCK_Rotatable_Bonds:                   7
##########                         Heavy_Atoms:                  30
##########                    Molecular_Weight:              414.39
##########                DOCK_Rotatable_Bonds:                   7
##########                       Formal_Charge:           0.0200001
##########                     HBond_Acceptors:                  10
##########                        HBond_Donors:                   2
##########                         Heavy_Atoms:                  30
##########                          Grid_Score:          -27.317942
##########                     Grid_vdw_energy:          -27.314085
##########                      Grid_es_energy:           -0.003857
##########           Internal_energy_repulsive:            7.740090

@<TRIPOS>MOLECULE
ZINC000442864105
 47 50 1 0 0
SMALL
USER_CHARGES


@<TRIPOS>ATOM
      1 C1         -6.9158    3.2781   55.1866 C.3     1  ZINC000442864105    0.0800
      2 N2         -7.3693    3.2420   53.7940 N.pl3   1  ZINC000442864105   -0.4900
      3 C3         -8.6574    3.4569   53.3798 C.2     1  ZINC000442864105    0.0300
      4 C4         -8.7318    3.3516   52.0441 C.2     1  ZINC000442864105   -0.1900
      5 C5         -7.3820    3.0441   51.5623 C.ar    1  ZINC000442864105   -0.1600
      6 C6         -6.8320    2.8231   50.2981 C.ar    1  ZINC000442864105   -0.0200
      7 C7         -5.4995    2.5512   50.1742 C.ar    1  ZINC000442864105   -0.2100
      8 C8         -4.6825    2.4924   51.3023 C.ar    1  ZINC000442864105    0.2400
      9 N9         -3.3204    2.2129   51.1584 N.pl3   1  ZINC000442864105   -0.7400
     10 C10        -2.4421    3.1745   50.4875 C.3     1  ZINC000442864105    0.1100
     11 C11        -1.1551    3.3038   51.2608 C.2     1  ZINC000442864105    0.5100
     12 O12        -0.8562    4.3642   51.7681 O.2     1  ZINC000442864105   -0.5100
     13 N13        -0.3361    2.2410   51.3887 N.am    1  ZINC000442864105   -0.6600
     14 C14         0.8593    2.3610   52.1069 C.ar    1  ZINC000442864105    0.1600
     15 C15         0.8371    2.7765   53.4302 C.ar    1  ZINC000442864105   -0.0700
     16 C16         2.0187    2.8942   54.1373 C.ar    1  ZINC000442864105   -0.1600
     17 C17         1.9921    3.3456   55.5748 C.3     1  ZINC000442864105    0.5100
     18 F18         0.7014    3.1857   56.0901 F       1  ZINC000442864105   -0.1700
     19 F19         2.8911    2.5767   56.3217 F       1  ZINC000442864105   -0.1700
     20 F20         2.3594    4.6937   55.6472 F       1  ZINC000442864105   -0.1700
     21 C21         3.2253    2.5986   53.5297 C.ar    1  ZINC000442864105   -0.0600
     22 C22         3.2568    2.1845   52.2115 C.ar    1  ZINC000442864105   -0.1100
     23 C23         2.0758    2.0579   51.4959 C.ar    1  ZINC000442864105    0.1500
     24 N24         2.1055    1.6378   50.1582 N.pl3   1  ZINC000442864105   -0.3300
     25 C25         2.8384    2.1694   49.1608 C.2     1  ZINC000442864105    0.2800
     26 N26         2.5849    1.4955   48.0680 N.2     1  ZINC000442864105   -0.5300
     27 C27         1.7012    0.5321   48.3255 C.2     1  ZINC000442864105    0.2300
     28 N28         1.3817    0.5752   49.5928 N.2     1  ZINC000442864105   -0.3400
     29 C29        -5.2097    2.7093   52.5636 C.ar    1  ZINC000442864105   -0.2100
     30 C30        -6.5634    2.9926   52.7056 C.ar    1  ZINC000442864105    0.1500
     31 H31        -6.6118    4.2929   55.4435 H       1  ZINC000442864105    0.0700
     32 H32        -7.7289    2.9658   55.8418 H       1  ZINC000442864105    0.0800
     33 H33        -6.0693    2.6028   55.3107 H       1  ZINC000442864105    0.0800
     34 H34        -9.4896    3.6783   54.0315 H       1  ZINC000442864105    0.1700
     35 H35        -9.6183    3.4704   51.4389 H       1  ZINC000442864105    0.1400
     36 H36        -7.4592    2.8667   49.4199 H       1  ZINC000442864105    0.1200
     37 H37        -5.0758    2.3800   49.1957 H       1  ZINC000442864105    0.1200
     38 H38        -2.9567    1.3822   51.5028 H       1  ZINC000442864105    0.4100
     39 H39        -2.2258    2.8260   49.4777 H       1  ZINC000442864105    0.1000
     40 H40        -2.9358    4.1451   50.4390 H       1  ZINC000442864105    0.1000
     41 H41        -0.5751    1.3930   50.9830 H       1  ZINC000442864105    0.4300
     42 H42        -0.1034    3.0081   53.9077 H       1  ZINC000442864105    0.1700
     43 H43         4.1457    2.6920   54.0869 H       1  ZINC000442864105    0.1500
     44 H44         4.2009    1.9548   51.7400 H       1  ZINC000442864105    0.1500
     45 H45         3.5160    3.0059   49.2477 H       1  ZINC000442864105    0.2300
     46 H46         1.3145   -0.1733   47.6049 H       1  ZINC000442864105    0.2300
     47 H47        -4.5714    2.6625   53.4336 H       1  ZINC000442864105    0.1200
@<TRIPOS>BOND
     1     1     2    1
     2     1    31    1
     3     1    32    1
     4     1    33    1
     5     2    30    1
     6     2     3    1
     7     3     4    2
     8     3    34    1
     9     4     5    1
    10     4    35    1
    11     5    30   ar
    12     5     6   ar
    13     6     7   ar
    14     6    36    1
    15     7     8   ar
    16     7    37    1
    17     8     9    1
    18     8    29   ar
    19     9    10    1
    20     9    38    1
    21    10    11    1
    22    10    39    1
    23    10    40    1
    24    11    12    2
    25    11    13   am
    26    13    14    1
    27    13    41    1
    28    14    23   ar
    29    14    15   ar
    30    15    16   ar
    31    15    42    1
    32    16    17    1
    33    16    21   ar
    34    17    18    1
    35    17    19    1
    36    17    20    1
    37    21    22   ar
    38    21    43    1
    39    22    23   ar
    40    22    44    1
    41    23    24    1
    42    24    28    1
    43    24    25    1
    44    25    26    2
    45    25    45    1
    46    26    27    1
    47    27    28    2
    48    27    46    1
    49    29    30   ar
    50    29    47    1
@<TRIPOS>SUBSTRUCTURE
     1 ZINC000442864105        1 TEMP              0 ****  ****    0 ROOT


##########                                Name:    ZINC000274225049
##########                DOCK_Rotatable_Bonds:                   6
##########                         Heavy_Atoms:                  25
##########                    Molecular_Weight:             380.895
##########                DOCK_Rotatable_Bonds:                   6
##########                       Formal_Charge:           0.0200006
##########                     HBond_Acceptors:                   7
##########                        HBond_Donors:                   2
##########                         Heavy_Atoms:                  25
##########                          Grid_Score:          -27.305777
##########                     Grid_vdw_energy:          -26.468542
##########                      Grid_es_energy:           -0.837235
##########           Internal_energy_repulsive:           15.097444

@<TRIPOS>MOLECULE
ZINC000274225049
 46 48 1 0 0
SMALL
USER_CHARGES


@<TRIPOS>ATOM
      1 C1        -10.9761    2.7147   52.4648 C.3     1  ZINC000274225049   -0.1600
      2 C2         -9.9094    1.7466   52.9803 C.3     1  ZINC000274225049    0.2000
      3 H3         -9.3557    2.2156   53.7937 H       1  ZINC000274225049    0.1100
      4 N4         -8.9878    1.4109   51.8922 N.am    1  ZINC000274225049   -0.7400
      5 C5         -8.0409    2.2926   51.5148 C.2     1  ZINC000274225049    0.7100
      6 O6         -7.9507    3.3661   52.0784 O.2     1  ZINC000274225049   -0.5800
      7 N7         -7.1941    1.9843   50.5127 N.am    1  ZINC000274225049   -0.7500
      8 C8         -6.1638    2.9420   50.1036 C.3     1  ZINC000274225049    0.1500
      9 C9         -4.8384    2.5850   50.7795 C.3     1  ZINC000274225049   -0.1000
     10 H10        -4.6037    1.5344   50.6087 H       1  ZINC000274225049    0.1000
     11 C11        -4.9243    2.8672   52.2897 C.3     1  ZINC000274225049   -0.1100
     12 C12        -3.5012    2.8284   52.8816 C.3     1  ZINC000274225049   -0.5900
     13 S13        -2.3992    3.3104   51.5035 S.o2    1  ZINC000274225049    2.3900
     14 O14        -1.8358    4.5863   51.7752 O.2     1  ZINC000274225049   -0.9300
     15 O15        -1.5519    2.2182   51.1740 O.2     1  ZINC000274225049   -0.9300
     16 C16        -3.7009    3.4802   50.2238 C.3     1  ZINC000274225049   -0.5900
     17 C17       -10.5723    0.4901   53.4831 C.ar    1  ZINC000274225049   -0.0700
     18 C18       -11.1127    0.4471   54.7793 C.ar    1  ZINC000274225049   -0.0300
     19 C19       -11.0507    1.5618   55.6331 C.ar    1  ZINC000274225049   -0.1100
     20 C20       -11.5853    1.4837   56.8821 C.ar    1  ZINC000274225049   -0.1100
     21 C21       -12.1949    0.3131   57.3300 C.ar    1  ZINC000274225049   -0.1100
     22 C22       -12.2734   -0.7860   56.5310 C.ar    1  ZINC000274225049   -0.1000
     23 C23       -11.7327   -0.7433   55.2347 C.ar    1  ZINC000274225049   -0.0400
     24 C24       -11.7950   -1.8582   54.3803 C.ar    1  ZINC000274225049   -0.0300
     25 Cl25      -12.5500   -3.3270   54.9155 Cl      1  ZINC000274225049   -0.0600
     26 C26       -11.2600   -1.7792   53.1297 C.ar    1  ZINC000274225049   -0.1000
     27 C27       -10.6554   -0.6071   52.6813 C.ar    1  ZINC000274225049   -0.1000
     28 H28       -10.4967    3.6236   52.1013 H       1  ZINC000274225049    0.0700
     29 H29       -11.5298    2.2457   51.6515 H       1  ZINC000274225049    0.0700
     30 H30       -11.6618    2.9646   53.2745 H       1  ZINC000274225049    0.0800
     31 H31        -9.0591    0.5539   51.4433 H       1  ZINC000274225049    0.4000
     32 H32        -7.2669    1.1283   50.0622 H       1  ZINC000274225049    0.4000
     33 H33        -6.0415    2.9038   49.0211 H       1  ZINC000274225049    0.0800
     34 H34        -6.4637    3.9471   50.4001 H       1  ZINC000274225049    0.0800
     35 H35        -5.3629    3.8513   52.4543 H       1  ZINC000274225049    0.0900
     36 H36        -5.5416    2.1079   52.7698 H       1  ZINC000274225049    0.0900
     37 H37        -3.4134    3.5396   53.7029 H       1  ZINC000274225049    0.1400
     38 H38        -3.2610    1.8219   53.2240 H       1  ZINC000274225049    0.1400
     39 H39        -3.3488    3.1078   49.2619 H       1  ZINC000274225049    0.1400
     40 H40        -4.0300    4.5162   50.1418 H       1  ZINC000274225049    0.1400
     41 H41       -10.5811    2.4755   55.2997 H       1  ZINC000274225049    0.1300
     42 H42       -11.5360    2.3416   57.5364 H       1  ZINC000274225049    0.1300
     43 H43       -12.6110    0.2774   58.3259 H       1  ZINC000274225049    0.1300
     44 H44       -12.7484   -1.6864   56.8917 H       1  ZINC000274225049    0.1300
     45 H45       -11.3086   -2.6368   52.4751 H       1  ZINC000274225049    0.1300
     46 H46       -10.2389   -0.5708   51.6855 H       1  ZINC000274225049    0.1300
@<TRIPOS>BOND
     1     1     2    1
     2     1    28    1
     3     1    29    1
     4     1    30    1
     5     2     3    1
     6     2     4    1
     7     2    17    1
     8     4     5   am
     9     4    31    1
    10     5     6    2
    11     5     7   am
    12     7     8    1
    13     7    32    1
    14     8     9    1
    15     8    33    1
    16     8    34    1
    17     9    10    1
    18     9    16    1
    19     9    11    1
    20    11    12    1
    21    11    35    1
    22    11    36    1
    23    12    13    1
    24    12    37    1
    25    12    38    1
    26    13    14    2
    27    13    15    2
    28    13    16    1
    29    16    39    1
    30    16    40    1
    31    17    27   ar
    32    17    18   ar
    33    18    23   ar
    34    18    19   ar
    35    19    20   ar
    36    19    41    1
    37    20    21   ar
    38    20    42    1
    39    21    22   ar
    40    21    43    1
    41    22    23   ar
    42    22    44    1
    43    23    24   ar
    44    24    25    1
    45    24    26   ar
    46    26    27   ar
    47    26    45    1
    48    27    46    1
@<TRIPOS>SUBSTRUCTURE
     1 ZINC000274225049        1 TEMP              0 ****  ****    0 ROOT


##########                                Name:    ZINC000444542200
##########                DOCK_Rotatable_Bonds:                   8
##########                         Heavy_Atoms:                  28
##########                    Molecular_Weight:             404.337
##########                DOCK_Rotatable_Bonds:                   8
##########                       Formal_Charge:           0.0200001
##########                     HBond_Acceptors:                  10
##########                        HBond_Donors:                   1
##########                         Heavy_Atoms:                  28
##########                          Grid_Score:          -27.286350
##########                     Grid_vdw_energy:          -26.556469
##########                      Grid_es_energy:           -0.729882
##########           Internal_energy_repulsive:           26.697687

@<TRIPOS>MOLECULE
ZINC000444542200
 45 46 1 0 0
SMALL
USER_CHARGES


@<TRIPOS>ATOM
      1 C1          1.6465    0.2957   50.6036 C.3     1  ZINC000444542200    0.0300
      2 O2          2.3452    1.5246   50.8127 O.3     1  ZINC000444542200   -0.3100
      3 C3          1.6203    2.5746   51.2806 C.ar    1  ZINC000444542200    0.1800
      4 C4          0.2985    2.3913   51.6571 C.ar    1  ZINC000444542200   -0.1700
      5 C5         -0.4416    3.4638   52.1354 C.ar    1  ZINC000444542200    0.2300
      6 N6         -1.7756    3.2793   52.5160 N.am    1  ZINC000444542200   -0.5800
      7 C7         -2.2207    3.6924   53.8492 C.3     1  ZINC000444542200    0.0700
      8 C8         -2.6507    2.7216   51.6561 C.2     1  ZINC000444542200    0.7100
      9 O9         -2.2813    2.3788   50.5495 O.2     1  ZINC000444542200   -0.5500
     10 N10        -3.9354    2.5438   52.0228 N.am    1  ZINC000444542200   -0.7300
     11 C11        -4.8864    1.9360   51.0887 C.3     1  ZINC000444542200    0.1700
     12 H12        -4.4394    1.0481   50.6415 H       1  ZINC000444542200    0.1500
     13 C13        -6.1402    1.5484   51.8295 C.ar    1  ZINC000444542200   -0.1300
     14 C14        -6.6696    0.2809   51.6762 C.ar    1  ZINC000444542200   -0.0800
     15 C15        -7.8198   -0.0762   52.3551 C.ar    1  ZINC000444542200   -0.0900
     16 C16        -8.4427    0.8335   53.1886 C.ar    1  ZINC000444542200   -0.1100
     17 C17        -7.9150    2.1036   53.3443 C.ar    1  ZINC000444542200    0.0800
     18 F18        -8.5233    2.9934   54.1589 F       1  ZINC000444542200   -0.1200
     19 C19        -6.7584    2.4599   52.6679 C.ar    1  ZINC000444542200    0.1000
     20 F20        -6.2415    3.6990   52.8182 F       1  ZINC000444542200   -0.1100
     21 C21        -5.2340    2.9410   49.9887 C.3     1  ZINC000444542200    0.4400
     22 F22        -6.6126    2.9157   49.7524 F       1  ZINC000444542200   -0.1600
     23 F23        -4.8537    4.2252   50.3933 F       1  ZINC000444542200   -0.1700
     24 F24        -4.5533    2.6014   48.8146 F       1  ZINC000444542200   -0.1800
     25 C25         0.1421    4.7190   52.2363 C.ar    1  ZINC000444542200   -0.1900
     26 C26         1.4638    4.9010   51.8594 C.ar    1  ZINC000444542200    0.1800
     27 O27         2.0354    6.1299   51.9583 O.3     1  ZINC000444542200   -0.3100
     28 C28         1.2139    7.1897   52.4520 C.3     1  ZINC000444542200    0.0300
     29 C29         2.2044    3.8280   51.3867 C.ar    1  ZINC000444542200   -0.2900
     30 H30         1.2161   -0.0424   51.5462 H       1  ZINC000444542200    0.0600
     31 H31         0.8504    0.4498   49.8751 H       1  ZINC000444542200    0.0600
     32 H32         2.3401   -0.4575   50.2299 H       1  ZINC000444542200    0.1000
     33 H33        -0.1550    1.4143   51.5780 H       1  ZINC000444542200    0.1300
     34 H34        -2.5644    4.7262   53.8133 H       1  ZINC000444542200    0.0700
     35 H35        -3.0379    3.0488   54.1750 H       1  ZINC000444542200    0.0700
     36 H36        -1.3909    3.6095   54.5512 H       1  ZINC000444542200    0.0900
     37 H37        -4.2305    2.8184   52.9051 H       1  ZINC000444542200    0.4100
     38 H38        -6.1845   -0.4312   51.0251 H       1  ZINC000444542200    0.1400
     39 H39        -8.2322   -1.0669   52.2338 H       1  ZINC000444542200    0.1500
     40 H40        -9.3413    0.5535   53.7182 H       1  ZINC000444542200    0.1500
     41 H41        -0.4335    5.5540   52.6080 H       1  ZINC000444542200    0.1400
     42 H42         0.8701    6.9449   53.4570 H       1  ZINC000444542200    0.0600
     43 H43         1.7912    8.1139   52.4806 H       1  ZINC000444542200    0.1000
     44 H44         0.3537    7.3188   51.7952 H       1  ZINC000444542200    0.0600
     45 H45         3.2340    3.9702   51.0932 H       1  ZINC000444542200    0.1400
@<TRIPOS>BOND
     1     1     2    1
     2     1    30    1
     3     1    31    1
     4     1    32    1
     5     2     3    1
     6     3    29   ar
     7     3     4   ar
     8     4     5   ar
     9     4    33    1
    10     5     6    1
    11     5    25   ar
    12     6     7    1
    13     6     8   am
    14     7    34    1
    15     7    35    1
    16     7    36    1
    17     8     9    2
    18     8    10   am
    19    10    11    1
    20    10    37    1
    21    11    12    1
    22    11    13    1
    23    11    21    1
    24    13    19   ar
    25    13    14   ar
    26    14    15   ar
    27    14    38    1
    28    15    16   ar
    29    15    39    1
    30    16    17   ar
    31    16    40    1
    32    17    18    1
    33    17    19   ar
    34    19    20    1
    35    21    22    1
    36    21    23    1
    37    21    24    1
    38    25    26   ar
    39    25    41    1
    40    26    27    1
    41    26    29   ar
    42    27    28    1
    43    28    42    1
    44    28    43    1
    45    28    44    1
    46    29    45    1
@<TRIPOS>SUBSTRUCTURE
     1 ZINC000444542200        1 TEMP              0 ****  ****    0 ROOT


##########                                Name:    ZINC000763800048
##########                DOCK_Rotatable_Bonds:                   8
##########                         Heavy_Atoms:                  23
##########                    Molecular_Weight:             329.783
##########                DOCK_Rotatable_Bonds:                   8
##########                       Formal_Charge:           0.0199994
##########                     HBond_Acceptors:                   5
##########                        HBond_Donors:                   1
##########                         Heavy_Atoms:                  23
##########                          Grid_Score:          -27.282801
##########                     Grid_vdw_energy:          -26.882439
##########                      Grid_es_energy:           -0.400362
##########           Internal_energy_repulsive:           10.662713

@<TRIPOS>MOLECULE
ZINC000763800048
 39 40 1 0 0
SMALL
USER_CHARGES


@<TRIPOS>ATOM
      1 C1         -4.2730    3.3314   50.4728 C.3     1  ZINC000763800048    0.0400
      2 O2         -5.6470    3.4016   50.0085 O.3     1  ZINC000763800048   -0.3600
      3 C3         -6.5208    2.5443   50.5591 C.2     1  ZINC000763800048    0.4600
      4 O4         -7.6664    2.5199   50.1758 O.2     1  ZINC000763800048   -0.4900
      5 C5         -6.0730    1.6123   51.6554 C.3     1  ZINC000763800048   -0.0700
      6 C6         -7.2603    1.2181   52.4958 C.ar    1  ZINC000763800048   -0.0600
      7 C7         -7.9818    0.0813   52.1814 C.ar    1  ZINC000763800048   -0.1200
      8 C8         -9.0721   -0.2840   52.9500 C.ar    1  ZINC000763800048   -0.1000
      9 C9         -9.4432    0.4857   54.0347 C.ar    1  ZINC000763800048   -0.1100
     10 C10        -8.7201    1.6283   54.3535 C.ar    1  ZINC000763800048    0.1500
     11 N11        -9.0930    2.4099   55.4512 N.am    1  ZINC000763800048   -0.6700
     12 C12        -8.5023    2.2177   56.6472 C.2     1  ZINC000763800048    0.5500
     13 O13        -7.6439    1.3638   56.7718 O.2     1  ZINC000763800048   -0.5200
     14 C14        -8.8926    3.0358   57.7960 C.2     1  ZINC000763800048   -0.2100
     15 C15        -9.5308    2.4702   58.8410 C.2     1  ZINC000763800048   -0.0100
     16 C16        -9.8360    1.0308   58.8251 C.ar    1  ZINC000763800048   -0.0800
     17 C17        -8.8665    0.1025   59.2183 C.ar    1  ZINC000763800048   -0.0900
     18 C18        -9.1594   -1.2442   59.2008 C.ar    1  ZINC000763800048   -0.1100
     19 C19       -10.4105   -1.6793   58.7944 C.ar    1  ZINC000763800048   -0.0200
     20 Cl20      -10.7702   -3.3774   58.7750 Cl      1  ZINC000763800048   -0.0600
     21 C21       -11.3759   -0.7655   58.4039 C.ar    1  ZINC000763800048   -0.1100
     22 C22       -11.0989    0.5847   58.4219 C.ar    1  ZINC000763800048   -0.0800
     23 C23        -7.6229    1.9896   53.5825 C.ar    1  ZINC000763800048   -0.1300
     24 H24        -3.6738    4.0758   49.9485 H       1  ZINC000763800048    0.1000
     25 H25        -4.2410    3.5285   51.5443 H       1  ZINC000763800048    0.0600
     26 H26        -3.8727    2.3373   50.2740 H       1  ZINC000763800048    0.0600
     27 H27        -5.6277    0.7204   51.2148 H       1  ZINC000763800048    0.1200
     28 H28        -5.3359    2.1152   52.2813 H       1  ZINC000763800048    0.1200
     29 H29        -7.6938   -0.5224   51.3336 H       1  ZINC000763800048    0.1200
     30 H30        -9.6341   -1.1722   52.7014 H       1  ZINC000763800048    0.1300
     31 H31       -10.2948    0.2001   54.6343 H       1  ZINC000763800048    0.1400
     32 H32        -9.7771    3.0904   55.3519 H       1  ZINC000763800048    0.4100
     33 H33        -8.6698    4.0925   57.8072 H       1  ZINC000763800048    0.1300
     34 H34        -9.8178    3.0737   59.6894 H       1  ZINC000763800048    0.1400
     35 H35        -7.8906    0.4402   59.5347 H       1  ZINC000763800048    0.1400
     36 H36        -8.4117   -1.9621   59.5043 H       1  ZINC000763800048    0.1400
     37 H37       -12.3490   -1.1117   58.0883 H       1  ZINC000763800048    0.1400
     38 H38       -11.8525    1.2959   58.1175 H       1  ZINC000763800048    0.1400
     39 H39        -7.0584    2.8771   53.8280 H       1  ZINC000763800048    0.1300
@<TRIPOS>BOND
     1     1     2    1
     2     1    24    1
     3     1    25    1
     4     1    26    1
     5     2     3    1
     6     3     4    2
     7     3     5    1
     8     5     6    1
     9     5    27    1
    10     5    28    1
    11     6    23   ar
    12     6     7   ar
    13     7     8   ar
    14     7    29    1
    15     8     9   ar
    16     8    30    1
    17     9    10   ar
    18     9    31    1
    19    10    11    1
    20    10    23   ar
    21    11    12   am
    22    11    32    1
    23    12    13    2
    24    12    14    1
    25    14    15    2
    26    14    33    1
    27    15    16    1
    28    15    34    1
    29    16    22   ar
    30    16    17   ar
    31    17    18   ar
    32    17    35    1
    33    18    19   ar
    34    18    36    1
    35    19    20    1
    36    19    21   ar
    37    21    22   ar
    38    21    37    1
    39    22    38    1
    40    23    39    1
@<TRIPOS>SUBSTRUCTURE
     1 ZINC000763800048        1 TEMP              0 ****  ****    0 ROOT


##########                                Name:    ZINC000646817380
##########                DOCK_Rotatable_Bonds:                   6
##########                         Heavy_Atoms:                  25
##########                    Molecular_Weight:             347.457
##########                DOCK_Rotatable_Bonds:                   6
##########                       Formal_Charge:           0.0199991
##########                     HBond_Acceptors:                   6
##########                        HBond_Donors:                   1
##########                         Heavy_Atoms:                  25
##########                          Grid_Score:          -27.250744
##########                     Grid_vdw_energy:          -27.114088
##########                      Grid_es_energy:           -0.136656
##########           Internal_energy_repulsive:           51.611359

@<TRIPOS>MOLECULE
ZINC000646817380
 54 56 1 0 0
SMALL
USER_CHARGES


@<TRIPOS>ATOM
      1 C1         -5.3152    4.1395   53.1156 C.3     1  ZINC000646817380   -0.1500
      2 C2         -5.6693    4.0556   51.6296 C.3     1  ZINC000646817380   -0.0100
      3 C3         -4.3985    3.8035   50.8158 C.3     1  ZINC000646817380   -0.1500
      4 C4         -6.6405    2.9248   51.4076 C.2     1  ZINC000646817380   -0.0100
      5 C5         -7.7869    2.6988   52.0886 C.2     1  ZINC000646817380   -0.2200
      6 C6         -8.3144    1.5232   51.4907 C.2     1  ZINC000646817380    0.2400
      7 N7         -9.4959    0.8682   51.8331 N.am    1  ZINC000646817380   -0.6100
      8 C8         -9.4700   -0.4366   52.1692 C.2     1  ZINC000646817380    0.5200
      9 O9         -8.4177   -1.0410   52.1750 O.2     1  ZINC000646817380   -0.4900
     10 C10       -10.7367   -1.1392   52.5345 C.2     1  ZINC000646817380    0.5300
     11 O11       -11.2170   -1.9570   51.7773 O.2     1  ZINC000646817380   -0.5100
     12 N12       -11.3461   -0.8648   53.7048 N.am    1  ZINC000646817380   -0.5800
     13 C13       -10.8758    0.0988   54.7105 C.3     1  ZINC000646817380    0.1000
     14 C14       -11.8733    0.0566   55.8873 C.3     1  ZINC000646817380   -0.1300
     15 C15       -12.5382   -1.3363   55.7294 C.3     1  ZINC000646817380   -0.1000
     16 H16       -11.9196   -2.1170   56.1723 H       1  ZINC000646817380    0.1000
     17 C17       -13.9434   -1.3450   56.3344 C.3     1  ZINC000646817380   -0.0700
     18 H18       -14.3819   -0.3489   56.2738 H       1  ZINC000646817380    0.0800
     19 C19       -14.8337   -2.3604   55.5885 C.3     1  ZINC000646817380   -0.1300
     20 C20       -15.7181   -2.9785   56.6997 C.3     1  ZINC000646817380   -0.1300
     21 C21       -14.7388   -3.0875   57.8948 C.3     1  ZINC000646817380   -0.1200
     22 C22       -13.8830   -1.8060   57.8012 C.3     1  ZINC000646817380   -0.0700
     23 C23       -12.4366   -2.1119   58.1952 C.3     1  ZINC000646817380   -0.1600
     24 C24       -14.4585   -0.7234   58.7165 C.3     1  ZINC000646817380   -0.1400
     25 C25       -12.5982   -1.4768   54.1856 C.3     1  ZINC000646817380    0.0900
     26 N26        -7.4691    1.1792   50.5545 N.2     1  ZINC000646817380   -0.3800
     27 O27        -6.5394    1.9499   50.4927 O.3     1  ZINC000646817380    0.1100
     28 H28        -4.6128    4.9574   53.2761 H       1  ZINC000646817380    0.0700
     29 H29        -6.2205    4.3191   53.6954 H       1  ZINC000646817380    0.0600
     30 H30        -4.8599    3.2017   53.4341 H       1  ZINC000646817380    0.0600
     31 H31        -6.1246    4.9933   51.3110 H       1  ZINC000646817380    0.1100
     32 H32        -3.9432    2.8657   51.1343 H       1  ZINC000646817380    0.0600
     33 H33        -4.6507    3.7437   49.7571 H       1  ZINC000646817380    0.0600
     34 H34        -3.6960    4.6214   50.9763 H       1  ZINC000646817380    0.0700
     35 H35        -8.2043    3.2778   52.8992 H       1  ZINC000646817380    0.1900
     36 H36       -10.3369    1.3516   51.8296 H       1  ZINC000646817380    0.4300
     37 H37        -9.8814   -0.1826   55.0571 H       1  ZINC000646817380    0.0800
     38 H38       -10.8512    1.1004   54.2812 H       1  ZINC000646817380    0.0800
     39 H39       -11.3488    0.1278   56.8402 H       1  ZINC000646817380    0.0900
     40 H40       -12.6143    0.8505   55.7935 H       1  ZINC000646817380    0.0800
     41 H41       -15.4513   -1.8538   54.8469 H       1  ZINC000646817380    0.0700
     42 H42       -14.2220   -3.1292   55.1160 H       1  ZINC000646817380    0.0800
     43 H43       -16.5513   -2.3188   56.9419 H       1  ZINC000646817380    0.0700
     44 H44       -16.0776   -3.9641   56.4038 H       1  ZINC000646817380    0.0700
     45 H45       -15.2874   -3.1113   58.8365 H       1  ZINC000646817380    0.0700
     46 H46       -14.1119   -3.9735   57.7949 H       1  ZINC000646817380    0.0700
     47 H47       -12.1538   -3.0908   57.8080 H       1  ZINC000646817380    0.0700
     48 H48       -11.7775   -1.3513   57.7766 H       1  ZINC000646817380    0.0600
     49 H49       -12.3481   -2.1113   59.2816 H       1  ZINC000646817380    0.0500
     50 H50       -14.4338   -1.0702   59.7495 H       1  ZINC000646817380    0.0600
     51 H51       -13.8630    0.1848   58.6238 H       1  ZINC000646817380    0.0500
     52 H52       -15.4884   -0.5136   58.4281 H       1  ZINC000646817380    0.0600
     53 H53       -13.4632   -0.9447   53.7897 H       1  ZINC000646817380    0.0900
     54 H54       -12.6361   -2.5284   53.9016 H       1  ZINC000646817380    0.1000
@<TRIPOS>BOND
     1     1     2    1
     2     1    28    1
     3     1    29    1
     4     1    30    1
     5     2     3    1
     6     2     4    1
     7     2    31    1
     8     3    32    1
     9     3    33    1
    10     3    34    1
    11     4    27    1
    12     4     5    2
    13     5     6    1
    14     5    35    1
    15     6     7    1
    16     6    26    2
    17     7     8   am
    18     7    36    1
    19     8     9    2
    20     8    10    1
    21    10    11    2
    22    10    12   am
    23    12    25    1
    24    12    13    1
    25    13    14    1
    26    13    37    1
    27    13    38    1
    28    14    15    1
    29    14    39    1
    30    14    40    1
    31    15    16    1
    32    15    17    1
    33    15    25    1
    34    17    18    1
    35    17    22    1
    36    17    19    1
    37    19    20    1
    38    19    41    1
    39    19    42    1
    40    20    21    1
    41    20    43    1
    42    20    44    1
    43    21    22    1
    44    21    45    1
    45    21    46    1
    46    22    23    1
    47    22    24    1
    48    23    47    1
    49    23    48    1
    50    23    49    1
    51    24    50    1
    52    24    51    1
    53    24    52    1
    54    25    53    1
    55    25    54    1
    56    26    27    1
@<TRIPOS>SUBSTRUCTURE
     1 ZINC000646817380        1 TEMP              0 ****  ****    0 ROOT


##########                                Name:    ZINC000132775118
##########                DOCK_Rotatable_Bonds:                   5
##########                         Heavy_Atoms:                  27
##########                    Molecular_Weight:             376.499
##########                DOCK_Rotatable_Bonds:                   5
##########                       Formal_Charge:        -4.76837e-07
##########                     HBond_Acceptors:                   7
##########                        HBond_Donors:                   1
##########                         Heavy_Atoms:                  27
##########                          Grid_Score:          -27.247543
##########                     Grid_vdw_energy:          -27.013771
##########                      Grid_es_energy:           -0.233772
##########           Internal_energy_repulsive:           23.283344

@<TRIPOS>MOLECULE
ZINC000132775118
 59 62 1 0 0
SMALL
USER_CHARGES


@<TRIPOS>ATOM
      1 O1        -12.4113    2.6191   52.7203 O.2     1  ZINC000132775118   -0.5200
      2 C2        -11.5228    1.8405   52.9942 C.2     1  ZINC000132775118    0.5200
      3 C3        -11.8575    0.4309   53.4092 C.3     1  ZINC000132775118    0.0300
      4 N4        -11.5992    0.2692   54.8462 N.3     1  ZINC000132775118   -0.5100
      5 C5        -11.8815    1.5141   55.5756 C.3     1  ZINC000132775118    0.0300
      6 C6        -11.8263    1.2834   57.0583 C.2     1  ZINC000132775118    0.5300
      7 O7        -11.7518    2.2479   57.7899 O.2     1  ZINC000132775118   -0.5500
      8 N8        -11.8558    0.0637   57.6124 N.am    1  ZINC000132775118   -0.7200
      9 C9        -11.8761   -1.1489   56.8061 C.3     1  ZINC000132775118    0.1500
     10 H10       -10.8609   -1.5377   56.7260 H       1  ZINC000132775118    0.0800
     11 C11       -12.7700   -2.2210   57.4254 C.3     1  ZINC000132775118   -0.1300
     12 C12       -12.6959   -3.4859   56.5641 C.3     1  ZINC000132775118   -0.1200
     13 C13       -13.1580   -3.1759   55.1400 C.3     1  ZINC000132775118   -0.1200
     14 C14       -12.2790   -2.0787   54.5313 C.3     1  ZINC000132775118   -0.1200
     15 C15       -12.3974   -0.8285   55.4037 C.3     1  ZINC000132775118    0.0700
     16 H16       -13.4411   -0.5179   55.4511 H       1  ZINC000132775118    0.0600
     17 N17       -10.2358    2.2341   52.9220 N.am    1  ZINC000132775118   -0.6200
     18 C18        -9.1480    1.2987   53.2390 C.3     1  ZINC000132775118    0.1100
     19 C19        -8.1659    1.2680   52.0636 C.3     1  ZINC000132775118   -0.1200
     20 C20        -7.7001    2.6929   51.7560 C.3     1  ZINC000132775118   -0.1000
     21 C21        -6.7077    2.6628   50.6221 C.2     1  ZINC000132775118    0.5300
     22 O22        -7.0988    2.6222   49.4749 O.2     1  ZINC000132775118   -0.5300
     23 N23        -5.3856    2.6811   50.8831 N.am    1  ZINC000132775118   -0.6200
     24 C24        -4.7769    2.7231   52.2209 C.3     1  ZINC000132775118    0.1000
     25 C25        -3.2462    2.7569   52.0268 C.3     1  ZINC000132775118   -0.1300
     26 C26        -3.0910    3.3031   50.5829 C.3     1  ZINC000132775118   -0.1300
     27 C27        -4.3103    2.6558   49.8750 C.3     1  ZINC000132775118    0.1000
     28 C28        -8.9036    3.5501   51.3575 C.3     1  ZINC000132775118   -0.1200
     29 C29        -9.8938    3.6050   52.5190 C.3     1  ZINC000132775118    0.1200
     30 H30       -12.9094    0.2319   53.2044 H       1  ZINC000132775118    0.0700
     31 H31       -11.2391   -0.2696   52.8478 H       1  ZINC000132775118    0.1200
     32 H32       -11.1421    2.2666   55.3015 H       1  ZINC000132775118    0.1300
     33 H33       -12.8747    1.8720   55.3045 H       1  ZINC000132775118    0.0700
     34 H34       -11.8636   -0.0139   58.5794 H       1  ZINC000132775118    0.4000
     35 H35       -12.4250   -2.4458   58.4346 H       1  ZINC000132775118    0.0800
     36 H36       -13.7989   -1.8629   57.4606 H       1  ZINC000132775118    0.0700
     37 H37       -11.6680   -3.8477   56.5401 H       1  ZINC000132775118    0.0700
     38 H38       -13.3385   -4.2544   56.9937 H       1  ZINC000132775118    0.0700
     39 H39       -13.0847   -4.0773   54.5316 H       1  ZINC000132775118    0.0700
     40 H40       -14.1944   -2.8390   55.1613 H       1  ZINC000132775118    0.0600
     41 H41       -11.2432   -2.4166   54.4989 H       1  ZINC000132775118    0.0800
     42 H42       -12.6231   -1.8532   53.5219 H       1  ZINC000132775118    0.0700
     43 H43        -8.6306    1.6315   54.1388 H       1  ZINC000132775118    0.0800
     44 H44        -9.5584    0.3016   53.3984 H       1  ZINC000132775118    0.0900
     45 H45        -7.3053    0.6522   52.3246 H       1  ZINC000132775118    0.0800
     46 H46        -8.6607    0.8498   51.1870 H       1  ZINC000132775118    0.0800
     47 H47        -7.2277    3.1195   52.6408 H       1  ZINC000132775118    0.0900
     48 H48        -5.1035    3.6190   52.7487 H       1  ZINC000132775118    0.0700
     49 H49        -5.0595    1.8342   52.7847 H       1  ZINC000132775118    0.0700
     50 H50        -2.7812    3.4309   52.7461 H       1  ZINC000132775118    0.0800
     51 H51        -2.8250    1.7548   52.1074 H       1  ZINC000132775118    0.0800
     52 H52        -3.1581    4.3909   50.5673 H       1  ZINC000132775118    0.0800
     53 H53        -2.1566    2.9643   50.1354 H       1  ZINC000132775118    0.0900
     54 H54        -4.0799    1.6310   49.5839 H       1  ZINC000132775118    0.0700
     55 H55        -4.5984    3.2432   49.0032 H       1  ZINC000132775118    0.0800
     56 H56        -8.5680    4.5587   51.1159 H       1  ZINC000132775118    0.0800
     57 H57        -9.3914    3.1104   50.4875 H       1  ZINC000132775118    0.0800
     58 H58       -10.7956    4.1310   52.2058 H       1  ZINC000132775118    0.1000
     59 H59        -9.4393    4.1249   53.3623 H       1  ZINC000132775118    0.0700
@<TRIPOS>BOND
     1     1     2    2
     2     2     3    1
     3     2    17   am
     4     3     4    1
     5     3    30    1
     6     3    31    1
     7     4    15    1
     8     4     5    1
     9     5     6    1
    10     5    32    1
    11     5    33    1
    12     6     7    2
    13     6     8   am
    14     8     9    1
    15     8    34    1
    16     9    10    1
    17     9    15    1
    18     9    11    1
    19    11    12    1
    20    11    35    1
    21    11    36    1
    22    12    13    1
    23    12    37    1
    24    12    38    1
    25    13    14    1
    26    13    39    1
    27    13    40    1
    28    14    15    1
    29    14    41    1
    30    14    42    1
    31    15    16    1
    32    17    29    1
    33    17    18    1
    34    18    19    1
    35    18    43    1
    36    18    44    1
    37    19    20    1
    38    19    45    1
    39    19    46    1
    40    20    21    1
    41    20    28    1
    42    20    47    1
    43    21    22    2
    44    21    23   am
    45    23    27    1
    46    23    24    1
    47    24    25    1
    48    24    48    1
    49    24    49    1
    50    25    26    1
    51    25    50    1
    52    25    51    1
    53    26    27    1
    54    26    52    1
    55    26    53    1
    56    27    54    1
    57    27    55    1
    58    28    29    1
    59    28    56    1
    60    28    57    1
    61    29    58    1
    62    29    59    1
@<TRIPOS>SUBSTRUCTURE
     1 ZINC000132775118        1 TEMP              0 ****  ****    0 ROOT


##########                                Name:    ZINC000330515179
##########                DOCK_Rotatable_Bonds:                   4
##########                         Heavy_Atoms:                  21
##########                    Molecular_Weight:             378.287
##########                DOCK_Rotatable_Bonds:                   4
##########                       Formal_Charge:           0.0200002
##########                     HBond_Acceptors:                   6
##########                        HBond_Donors:                   0
##########                         Heavy_Atoms:                  21
##########                          Grid_Score:          -27.246628
##########                     Grid_vdw_energy:          -26.862080
##########                      Grid_es_energy:           -0.384548
##########           Internal_energy_repulsive:            5.204741

@<TRIPOS>MOLECULE
ZINC000330515179
 41 42 1 0 0
SMALL
USER_CHARGES


@<TRIPOS>ATOM
      1 C1        -11.3877   -2.3769   53.4873 C.3     1  ZINC000330515179    0.0300
      2 O2        -10.8312   -1.0614   53.4433 O.3     1  ZINC000330515179   -0.3800
      3 C3         -9.7642   -0.9128   52.5044 C.3     1  ZINC000330515179    0.0700
      4 C4         -9.2955    0.5435   52.4914 C.3     1  ZINC000330515179    0.0800
      5 H5         -9.9804    1.1411   51.8896 H       1  ZINC000330515179    0.0800
      6 C6         -7.8862    0.6226   51.8932 C.3     1  ZINC000330515179    0.0900
      7 N7         -7.3863    1.9961   52.0631 N.am    1  ZINC000330515179   -1.0000
      8 S8         -6.7514    2.8363   50.7851 S.o2    1  ZINC000330515179    2.6900
      9 O9         -6.6838    1.9231   49.6985 O.2     1  ZINC000330515179   -0.9400
     10 O10        -7.4587    4.0672   50.7230 O.2     1  ZINC000330515179   -0.9500
     11 C11        -5.0873    3.2392   51.2008 C.ar    1  ZINC000330515179   -0.6700
     12 C12        -4.6846    4.5612   51.2366 C.ar    1  ZINC000330515179   -0.0100
     13 C13        -3.3794    4.8777   51.5631 C.ar    1  ZINC000330515179   -0.1100
     14 C14        -2.4760    3.8714   51.8540 C.ar    1  ZINC000330515179   -0.0400
     15 Br15       -0.6903    4.3038   52.3014 Br      1  ZINC000330515179   -0.0300
     16 C16        -2.8793    2.5488   51.8181 C.ar    1  ZINC000330515179   -0.1100
     17 C17        -4.1861    2.2335   51.4967 C.ar    1  ZINC000330515179   -0.0100
     18 C18        -7.4667    2.6007   53.4023 C.3     1  ZINC000330515179    0.1000
     19 C19        -8.8964    2.4253   53.9269 C.3     1  ZINC000330515179    0.1000
     20 C20        -8.9621    2.8692   55.3896 C.3     1  ZINC000330515179   -0.1400
     21 C21        -9.8553    3.2756   53.0912 C.3     1  ZINC000330515179   -0.1800
     22 O22        -9.2694    1.0487   53.8285 O.3     1  ZINC000330515179   -0.3500
     23 H23       -12.1909   -2.4072   54.2235 H       1  ZINC000330515179    0.0900
     24 H24       -11.7845   -2.6366   52.5058 H       1  ZINC000330515179    0.0400
     25 H25       -10.6122   -3.0904   53.7661 H       1  ZINC000330515179    0.0400
     26 H26        -8.9347   -1.5589   52.7917 H       1  ZINC000330515179    0.0600
     27 H27       -10.1138   -1.1909   51.5102 H       1  ZINC000330515179    0.0700
     28 H28        -7.2279   -0.0745   52.4115 H       1  ZINC000330515179    0.0900
     29 H29        -7.9231    0.3738   50.8326 H       1  ZINC000330515179    0.1000
     30 H30        -5.3900    5.3468   51.0090 H       1  ZINC000330515179    0.1500
     31 H31        -3.0648    5.9105   51.5906 H       1  ZINC000330515179    0.1500
     32 H32        -2.1744    1.7628   52.0453 H       1  ZINC000330515179    0.1500
     33 H33        -4.5011    1.2009   51.4686 H       1  ZINC000330515179    0.1500
     34 H34        -6.7661    2.1028   54.0725 H       1  ZINC000330515179    0.0900
     35 H35        -7.2257    3.6620   53.3410 H       1  ZINC000330515179    0.1000
     36 H36        -8.6742    3.9178   55.4643 H       1  ZINC000330515179    0.0800
     37 H37        -9.9789    2.7442   55.7619 H       1  ZINC000330515179    0.0700
     38 H38        -8.2801    2.2618   55.9846 H       1  ZINC000330515179    0.0700
     39 H39        -9.8093    2.9577   52.0496 H       1  ZINC000330515179    0.0600
     40 H40       -10.8716    3.1504   53.4647 H       1  ZINC000330515179    0.0700
     41 H41        -9.5682    4.3246   53.1639 H       1  ZINC000330515179    0.0700
@<TRIPOS>BOND
     1     1     2    1
     2     1    23    1
     3     1    24    1
     4     1    25    1
     5     2     3    1
     6     3     4    1
     7     3    26    1
     8     3    27    1
     9     4     5    1
    10     4    22    1
    11     4     6    1
    12     6     7    1
    13     6    28    1
    14     6    29    1
    15     7     8   am
    16     7    18    1
    17     8     9    2
    18     8    10    2
    19     8    11    1
    20    11    17   ar
    21    11    12   ar
    22    12    13   ar
    23    12    30    1
    24    13    14   ar
    25    13    31    1
    26    14    15    1
    27    14    16   ar
    28    16    17   ar
    29    16    32    1
    30    17    33    1
    31    18    19    1
    32    18    34    1
    33    18    35    1
    34    19    20    1
    35    19    21    1
    36    19    22    1
    37    20    36    1
    38    20    37    1
    39    20    38    1
    40    21    39    1
    41    21    40    1
    42    21    41    1
@<TRIPOS>SUBSTRUCTURE
     1 ZINC000330515179        1 TEMP              0 ****  ****    0 ROOT


##########                                Name:    ZINC000840649129
##########                DOCK_Rotatable_Bonds:                   8
##########                         Heavy_Atoms:                  26
##########                    Molecular_Weight:             376.839
##########                DOCK_Rotatable_Bonds:                   8
##########                       Formal_Charge:          -0.0199998
##########                     HBond_Acceptors:                   7
##########                        HBond_Donors:                   3
##########                         Heavy_Atoms:                  26
##########                          Grid_Score:          -27.239779
##########                     Grid_vdw_energy:          -27.113535
##########                      Grid_es_energy:           -0.126244
##########           Internal_energy_repulsive:          165.446381

@<TRIPOS>MOLECULE
ZINC000840649129
 47 48 1 0 0
SMALL
USER_CHARGES


@<TRIPOS>ATOM
      1 C1         -7.6646    2.2372   56.0422 C.3     1  ZINC000840649129    0.0200
      2 O2         -7.7704    2.4022   54.6268 O.3     1  ZINC000840649129   -0.2900
      3 C3         -8.5264    1.4964   53.9556 C.ar    1  ZINC000840649129    0.1400
      4 C4         -9.7713    1.1317   54.4448 C.ar    1  ZINC000840649129   -0.1700
      5 C5        -10.5416    0.2106   53.7637 C.ar    1  ZINC000840649129   -0.1200
      6 C6        -10.0764   -0.3581   52.5827 C.ar    1  ZINC000840649129    0.1700
      7 N7        -10.8647   -1.2910   51.8992 N.pl3   1  ZINC000840649129   -0.8800
      8 C8         -8.8359   -0.0031   52.0815 C.ar    1  ZINC000840649129   -0.1000
      9 C9         -8.0526    0.9318   52.7632 C.ar    1  ZINC000840649129   -0.1200
     10 C10        -6.7307    1.3157   52.2359 C.2     1  ZINC000840649129    0.5100
     11 O11        -5.9072    0.4598   51.9787 O.2     1  ZINC000840649129   -0.4800
     12 O12        -6.4354    2.6156   52.0391 O.3     1  ZINC000840649129   -0.3200
     13 C13        -5.0834    3.0399   52.3564 C.3     1  ZINC000840649129    0.0800
     14 H14        -4.5214    2.1950   52.7543 H       1  ZINC000840649129    0.1200
     15 C15        -5.1308    4.1406   53.3846 C.2     1  ZINC000840649129    0.5200
     16 O16        -5.6181    5.2146   53.1014 O.2     1  ZINC000840649129   -0.4900
     17 N17        -4.6318    3.9315   54.6190 N.am    1  ZINC000840649129   -0.6600
     18 C18        -4.6757    4.9539   55.5742 C.ar    1  ZINC000840649129    0.1600
     19 C19        -5.2371    6.1822   55.2530 C.ar    1  ZINC000840649129   -0.1400
     20 C20        -5.2794    7.1893   56.1980 C.ar    1  ZINC000840649129   -0.0900
     21 C21        -4.7636    6.9753   57.4626 C.ar    1  ZINC000840649129   -0.1300
     22 C22        -4.2029    5.7531   57.7865 C.ar    1  ZINC000840649129   -0.0900
     23 C23        -4.1625    4.7397   56.8480 C.ar    1  ZINC000840649129   -0.0700
     24 Cl24       -3.4593    3.2055   57.2551 Cl      1  ZINC000840649129   -0.0700
     25 C25        -4.3999    3.5556   51.0885 C.3     1  ZINC000840649129   -0.1100
     26 C26        -2.9214    3.8217   51.3784 C.3     1  ZINC000840649129   -0.1600
     27 C27        -4.5216    2.5069   49.9810 C.3     1  ZINC000840649129   -0.1500
     28 H28        -7.0341    3.0255   56.4539 H       1  ZINC000840649129    0.1000
     29 H29        -8.6567    2.2947   56.4899 H       1  ZINC000840649129    0.0600
     30 H30        -7.2221    1.2658   56.2627 H       1  ZINC000840649129    0.0600
     31 H31       -10.1390    1.5689   55.3612 H       1  ZINC000840649129    0.1400
     32 H32       -11.5103   -0.0701   54.1501 H       1  ZINC000840649129    0.1300
     33 H33       -11.7343   -1.5404   52.2492 H       1  ZINC000840649129    0.4000
     34 H34       -10.5414   -1.6883   51.0755 H       1  ZINC000840649129    0.4000
     35 H35        -8.4759   -0.4450   51.1641 H       1  ZINC000840649129    0.1400
     36 H36        -4.2422    3.0726   54.8456 H       1  ZINC000840649129    0.4200
     37 H37        -5.6400    6.3506   54.2653 H       1  ZINC000840649129    0.1700
     38 H38        -5.7158    8.1451   55.9482 H       1  ZINC000840649129    0.1300
     39 H39        -4.7981    7.7644   58.1992 H       1  ZINC000840649129    0.1300
     40 H40        -3.8005    5.5892   58.7752 H       1  ZINC000840649129    0.1400
     41 H41        -4.8794    4.4803   50.7676 H       1  ZINC000840649129    0.0900
     42 H42        -2.4715    2.9318   51.8189 H       1  ZINC000840649129    0.0700
     43 H43        -2.4072    4.0666   50.4491 H       1  ZINC000840649129    0.0800
     44 H44        -2.8320    4.6562   52.0739 H       1  ZINC000840649129    0.0600
     45 H45        -5.5750    2.3173   49.7744 H       1  ZINC000840649129    0.0500
     46 H46        -4.0347    2.8742   49.0777 H       1  ZINC000840649129    0.0600
     47 H47        -4.0422    1.5821   50.3018 H       1  ZINC000840649129    0.0700
@<TRIPOS>BOND
     1     1     2    1
     2     1    28    1
     3     1    29    1
     4     1    30    1
     5     2     3    1
     6     3     9   ar
     7     3     4   ar
     8     4     5   ar
     9     4    31    1
    10     5     6   ar
    11     5    32    1
    12     6     7    1
    13     6     8   ar
    14     7    33    1
    15     7    34    1
    16     8     9   ar
    17     8    35    1
    18     9    10    1
    19    10    11    2
    20    10    12    1
    21    12    13    1
    22    13    14    1
    23    13    15    1
    24    13    25    1
    25    15    16    2
    26    15    17   am
    27    17    18    1
    28    17    36    1
    29    18    23   ar
    30    18    19   ar
    31    19    20   ar
    32    19    37    1
    33    20    21   ar
    34    20    38    1
    35    21    22   ar
    36    21    39    1
    37    22    23   ar
    38    22    40    1
    39    23    24    1
    40    25    26    1
    41    25    27    1
    42    25    41    1
    43    26    42    1
    44    26    43    1
    45    26    44    1
    46    27    45    1
    47    27    46    1
    48    27    47    1
@<TRIPOS>SUBSTRUCTURE
     1 ZINC000840649129        1 TEMP              0 ****  ****    0 ROOT


##########                                Name:    ZINC001060733018
##########                DOCK_Rotatable_Bonds:                   7
##########                         Heavy_Atoms:                  24
##########                    Molecular_Weight:             342.429
##########                DOCK_Rotatable_Bonds:                   7
##########                       Formal_Charge:           0.0200001
##########                     HBond_Acceptors:                   6
##########                        HBond_Donors:                   2
##########                         Heavy_Atoms:                  24
##########                          Grid_Score:          -27.238871
##########                     Grid_vdw_energy:          -26.271614
##########                      Grid_es_energy:           -0.967257
##########           Internal_energy_repulsive:            6.675800

@<TRIPOS>MOLECULE
ZINC001060733018
 52 54 1 0 0
SMALL
USER_CHARGES


@<TRIPOS>ATOM
      1 O1         -1.8940    4.4305   52.6789 O.2     1  ZINC001060733018   -0.5000
      2 C2         -1.6697    3.8699   51.6271 C.2     1  ZINC001060733018    0.4700
      3 N3         -2.6368    3.7777   50.6929 N.am    1  ZINC001060733018   -0.7100
      4 C4         -3.9602    4.3511   50.9496 C.3     1  ZINC001060733018    0.1200
      5 C5         -4.8462    3.3051   51.6290 C.3     1  ZINC001060733018   -0.1000
      6 H6         -4.2572    2.7481   52.3577 H       1  ZINC001060733018    0.0800
      7 C7         -6.0075    4.0039   52.3389 C.3     1  ZINC001060733018   -0.1100
      8 C8         -6.8935    2.9578   53.0185 C.3     1  ZINC001060733018   -0.1300
      9 C9         -7.4449    1.9948   51.9652 C.3     1  ZINC001060733018    0.1400
     10 H10        -8.0339    2.5518   51.2365 H       1  ZINC001060733018    0.0900
     11 N11        -8.2933    0.9932   52.6159 N.am    1  ZINC001060733018   -0.7300
     12 C12        -9.6343    1.1250   52.5876 C.2     1  ZINC001060733018    0.5200
     13 O13       -10.1388    2.0720   52.0223 O.2     1  ZINC001060733018   -0.5400
     14 C14       -10.5068    0.0956   53.2585 C.3     1  ZINC001060733018   -0.1000
     15 H15       -10.0887   -0.1555   54.2332 H       1  ZINC001060733018    0.1000
     16 C16       -10.5701   -1.1626   52.3912 C.3     1  ZINC001060733018   -0.1100
     17 C17       -11.3932   -2.2397   53.0992 C.3     1  ZINC001060733018   -0.1200
     18 C18       -12.8334   -1.7482   53.2747 C.3     1  ZINC001060733018   -0.0800
     19 C19       -12.8148   -0.4231   54.0424 C.3     1  ZINC001060733018   -0.1300
     20 C20       -12.9299   -0.4832   55.5653 C.3     1  ZINC001060733018   -0.1700
     21 C21       -14.1068    0.0206   54.7271 C.3     1  ZINC001060733018   -0.1700
     22 C22       -11.9184    0.6622   53.4390 C.3     1  ZINC001060733018   -0.0600
     23 C23        -6.2837    1.2960   51.2552 C.3     1  ZINC001060733018   -0.1200
     24 C24        -5.3977    2.3421   50.5758 C.3     1  ZINC001060733018   -0.1100
     25 C25        -0.3078    3.2816   51.3623 C.3     1  ZINC001060733018    0.2600
     26 F26        -0.4422    2.1257   50.5857 F       1  ZINC001060733018   -0.1700
     27 F27         0.4782    4.2147   50.6775 F       1  ZINC001060733018   -0.1900
     28 H28        -2.4565    3.3318   49.8506 H       1  ZINC001060733018    0.4100
     29 H29        -3.8598    5.2201   51.6000 H       1  ZINC001060733018    0.0800
     30 H30        -4.4142    4.6541   50.0060 H       1  ZINC001060733018    0.0800
     31 H31        -5.6147    4.6900   53.0893 H       1  ZINC001060733018    0.0700
     32 H32        -6.5965    4.5609   51.6103 H       1  ZINC001060733018    0.0700
     33 H33        -7.7208    3.4556   53.5242 H       1  ZINC001060733018    0.0700
     34 H34        -6.3045    2.4009   53.7471 H       1  ZINC001060733018    0.0600
     35 H35        -7.8898    0.2351   53.0670 H       1  ZINC001060733018    0.4000
     36 H36       -11.0353   -0.9208   51.4355 H       1  ZINC001060733018    0.0700
     37 H37        -9.5603   -1.5348   52.2187 H       1  ZINC001060733018    0.0700
     38 H38       -11.3906   -3.1509   52.5010 H       1  ZINC001060733018    0.0700
     39 H39       -10.9579   -2.4457   54.0770 H       1  ZINC001060733018    0.0700
     40 H40       -13.2893   -1.5968   52.2962 H       1  ZINC001060733018    0.0700
     41 H41       -13.4056   -2.4871   53.8355 H       1  ZINC001060733018    0.0700
     42 H42       -13.0238   -1.4673   56.0246 H       1  ZINC001060733018    0.0900
     43 H43       -12.3705    0.2536   56.1419 H       1  ZINC001060733018    0.0900
     44 H44       -14.3218    1.0889   54.7523 H       1  ZINC001060733018    0.0900
     45 H45       -14.9752   -0.6317   54.6346 H       1  ZINC001060733018    0.0900
     46 H46       -11.8841    1.5215   54.1087 H       1  ZINC001060733018    0.0700
     47 H47       -12.3159    0.9674   52.4709 H       1  ZINC001060733018    0.0800
     48 H48        -6.6765    0.6099   50.5050 H       1  ZINC001060733018    0.0700
     49 H49        -5.6946    0.7390   51.9840 H       1  ZINC001060733018    0.0700
     50 H50        -5.9867    2.8989   49.8471 H       1  ZINC001060733018    0.0700
     51 H51        -4.5704    1.8442   50.0700 H       1  ZINC001060733018    0.0700
     52 H52         0.1696    3.0297   52.3092 H       1  ZINC001060733018    0.1400
@<TRIPOS>BOND
     1     1     2    2
     2     2     3   am
     3     2    25    1
     4     3     4    1
     5     3    28    1
     6     4     5    1
     7     4    29    1
     8     4    30    1
     9     5     6    1
    10     5    24    1
    11     5     7    1
    12     7     8    1
    13     7    31    1
    14     7    32    1
    15     8     9    1
    16     8    33    1
    17     8    34    1
    18     9    10    1
    19     9    11    1
    20     9    23    1
    21    11    12   am
    22    11    35    1
    23    12    13    2
    24    12    14    1
    25    14    15    1
    26    14    22    1
    27    14    16    1
    28    16    17    1
    29    16    36    1
    30    16    37    1
    31    17    18    1
    32    17    38    1
    33    17    39    1
    34    18    19    1
    35    18    40    1
    36    18    41    1
    37    19    21    1
    38    19    20    1
    39    19    22    1
    40    20    21    1
    41    20    42    1
    42    20    43    1
    43    21    44    1
    44    21    45    1
    45    22    46    1
    46    22    47    1
    47    23    24    1
    48    23    48    1
    49    23    49    1
    50    24    50    1
    51    24    51    1
    52    25    26    1
    53    25    27    1
    54    25    52    1
@<TRIPOS>SUBSTRUCTURE
     1 ZINC001060733018        1 TEMP              0 ****  ****    0 ROOT


##########                                Name:    ZINC001500042809
##########                DOCK_Rotatable_Bonds:                   9
##########                         Heavy_Atoms:                  24
##########                    Molecular_Weight:              346.45
##########                DOCK_Rotatable_Bonds:                   9
##########                       Formal_Charge:           0.0200001
##########                     HBond_Acceptors:                   6
##########                        HBond_Donors:                   2
##########                         Heavy_Atoms:                  24
##########                          Grid_Score:          -27.231333
##########                     Grid_vdw_energy:          -27.124338
##########                      Grid_es_energy:           -0.106994
##########           Internal_energy_repulsive:           42.557983

@<TRIPOS>MOLECULE
ZINC001500042809
 46 47 1 0 0
SMALL
USER_CHARGES


@<TRIPOS>ATOM
      1 C1         -8.5274    0.0215   64.3778 C.3     1  ZINC001500042809    0.0200
      2 O2         -9.4355    0.5647   63.4175 O.3     1  ZINC001500042809   -0.3100
      3 C3         -9.7083   -0.1969   62.3279 C.ar    1  ZINC001500042809    0.1600
      4 C4         -8.6839   -0.8872   61.6906 C.ar    1  ZINC001500042809   -0.1600
      5 C5         -8.9566   -1.6607   60.5843 C.ar    1  ZINC001500042809   -0.0200
      6 C6        -10.2653   -1.7513   60.1030 C.ar    1  ZINC001500042809   -0.1800
      7 C7        -10.5619   -2.5792   58.9176 C.2     1  ZINC001500042809    0.5600
      8 O8        -10.1434   -3.7189   58.8517 O.2     1  ZINC001500042809   -0.5300
      9 N9        -11.2968   -2.0719   57.9081 N.am    1  ZINC001500042809   -0.7300
     10 C10       -11.5927   -2.8942   56.7322 C.3     1  ZINC001500042809    0.1300
     11 C11       -12.9735   -2.5252   56.1863 C.3     1  ZINC001500042809   -0.1200
     12 H12       -13.1803   -1.4765   56.3999 H       1  ZINC001500042809    0.0900
     13 C13       -13.0014   -2.7526   54.6736 C.3     1  ZINC001500042809   -0.1500
     14 C14       -14.0363   -3.4008   56.8533 C.3     1  ZINC001500042809    0.1300
     15 N15       -14.6793   -2.6499   57.9345 N.am    1  ZINC001500042809   -0.7300
     16 C16       -15.9825   -2.8515   58.2126 C.2     1  ZINC001500042809    0.5900
     17 O17       -16.6249   -3.6584   57.5664 O.2     1  ZINC001500042809   -0.5200
     18 C18       -16.6264   -2.0989   59.2932 C.2     1  ZINC001500042809   -0.2800
     19 C19       -16.0158   -1.1649   60.0818 C.2     1  ZINC001500042809   -0.0100
     20 C20       -14.5662   -0.7786   59.9376 C.3     1  ZINC001500042809   -0.1100
     21 C21       -16.8555   -0.6120   61.0194 C.2     1  ZINC001500042809   -0.1500
     22 C22       -18.1106   -1.0760   61.0011 C.2     1  ZINC001500042809   -0.2200
     23 S23       -18.3100   -2.2482   59.7776 S.3     1  ZINC001500042809    0.1900
     24 C24       -11.2913   -1.0515   60.7433 C.ar    1  ZINC001500042809   -0.0400
     25 C25       -11.0113   -0.2841   61.8518 C.ar    1  ZINC001500042809   -0.2200
     26 H26        -8.9276   -0.9145   64.7674 H       1  ZINC001500042809    0.0600
     27 H27        -7.5645   -0.1651   63.9023 H       1  ZINC001500042809    0.0600
     28 H28        -8.3974    0.7296   65.1961 H       1  ZINC001500042809    0.1000
     29 H29        -7.6727   -0.8166   62.0632 H       1  ZINC001500042809    0.1400
     30 H30        -8.1600   -2.1962   60.0894 H       1  ZINC001500042809    0.1400
     31 H31       -11.6298   -1.1623   57.9601 H       1  ZINC001500042809    0.4000
     32 H32       -11.5828   -3.9473   57.0135 H       1  ZINC001500042809    0.0800
     33 H33       -10.8392   -2.7159   55.9652 H       1  ZINC001500042809    0.0800
     34 H34       -12.2442   -2.1289   54.1984 H       1  ZINC001500042809    0.0600
     35 H35       -12.7945   -3.8013   54.4600 H       1  ZINC001500042809    0.0600
     36 H36       -13.9851   -2.4898   54.2846 H       1  ZINC001500042809    0.0600
     37 H37       -14.7851   -3.6887   56.1155 H       1  ZINC001500042809    0.0800
     38 H38       -13.5660   -4.2952   57.2618 H       1  ZINC001500042809    0.0800
     39 H39       -14.1670   -2.0077   58.4504 H       1  ZINC001500042809    0.4000
     40 H40       -14.4791    0.0499   59.2347 H       1  ZINC001500042809    0.0800
     41 H41       -14.1729   -0.4750   60.9077 H       1  ZINC001500042809    0.0700
     42 H42       -13.9983   -1.6315   59.5660 H       1  ZINC001500042809    0.0900
     43 H43       -16.5262    0.1412   61.7197 H       1  ZINC001500042809    0.1500
     44 H44       -18.8937   -0.7489   61.6690 H       1  ZINC001500042809    0.1700
     45 H45       -12.3033   -1.1156   60.3715 H       1  ZINC001500042809    0.1300
     46 H46       -11.8043    0.2544   62.3492 H       1  ZINC001500042809    0.1400
@<TRIPOS>BOND
     1     1     2    1
     2     1    26    1
     3     1    27    1
     4     1    28    1
     5     2     3    1
     6     3    25   ar
     7     3     4   ar
     8     4     5   ar
     9     4    29    1
    10     5     6   ar
    11     5    30    1
    12     6     7    1
    13     6    24   ar
    14     7     8    2
    15     7     9   am
    16     9    10    1
    17     9    31    1
    18    10    11    1
    19    10    32    1
    20    10    33    1
    21    11    12    1
    22    11    13    1
    23    11    14    1
    24    13    34    1
    25    13    35    1
    26    13    36    1
    27    14    15    1
    28    14    37    1
    29    14    38    1
    30    15    16   am
    31    15    39    1
    32    16    17    2
    33    16    18    1
    34    18    23    1
    35    18    19    2
    36    19    20    1
    37    19    21    1
    38    20    40    1
    39    20    41    1
    40    20    42    1
    41    21    22    2
    42    21    43    1
    43    22    23    1
    44    22    44    1
    45    24    25   ar
    46    24    45    1
    47    25    46    1
@<TRIPOS>SUBSTRUCTURE
     1 ZINC001500042809        1 TEMP              0 ****  ****    0 ROOT


##########                                Name:    ZINC000864477301
##########                DOCK_Rotatable_Bonds:                   6
##########                         Heavy_Atoms:                  26
##########                    Molecular_Weight:             393.891
##########                DOCK_Rotatable_Bonds:                   6
##########                       Formal_Charge:         -0.00999978
##########                     HBond_Acceptors:                   7
##########                        HBond_Donors:                   1
##########                         Heavy_Atoms:                  26
##########                          Grid_Score:          -27.209518
##########                     Grid_vdw_energy:          -28.260714
##########                      Grid_es_energy:            1.051195
##########           Internal_energy_repulsive:            9.569673

@<TRIPOS>MOLECULE
ZINC000864477301
 46 47 1 0 0
SMALL
USER_CHARGES


@<TRIPOS>ATOM
      1 C1          2.9517    2.3676   49.1735 C.3     1  ZINC000864477301   -0.1500
      2 C2          2.9546    1.5227   50.4489 C.3     1  ZINC000864477301    0.0600
      3 O3          2.1656    2.1866   51.4711 O.3     1  ZINC000864477301   -0.3500
      4 C4          0.8343    1.9826   51.4448 C.2     1  ZINC000864477301    0.5100
      5 O5          0.3946    0.8614   51.2867 O.2     1  ZINC000864477301   -0.5000
      6 C6         -0.0910    3.1225   51.6082 C.ar    1  ZINC000864477301   -0.1400
      7 C7          0.3981    4.4301   51.5953 C.ar    1  ZINC000864477301   -0.0300
      8 C8         -0.4717    5.4900   51.7485 C.ar    1  ZINC000864477301   -0.1500
      9 C9         -1.8256    5.2595   51.9150 C.ar    1  ZINC000864477301   -0.0100
     10 C10        -2.3171    3.9659   51.9286 C.ar    1  ZINC000864477301   -0.4900
     11 S11        -4.0434    3.6838   52.1413 S.o     1  ZINC000864477301    1.3800
     12 O12        -4.0896    2.3621   52.6613 O.2     1  ZINC000864477301   -0.8100
     13 C13        -4.6700    3.6861   50.4390 C.3     1  ZINC000864477301   -0.4600
     14 H14        -4.5370    4.6767   50.0043 H       1  ZINC000864477301    0.1400
     15 C15        -3.8983    2.6575   49.6101 C.3     1  ZINC000864477301   -0.1400
     16 C16        -6.1347    3.3316   50.4424 C.2     1  ZINC000864477301    0.5500
     17 O17        -6.6341    2.8077   49.4691 O.2     1  ZINC000864477301   -0.5100
     18 N18        -6.8897    3.5968   51.5268 N.am    1  ZINC000864477301   -0.6800
     19 C19        -8.2503    3.2675   51.5299 C.ar    1  ZINC000864477301    0.1400
     20 C20        -8.6885    2.1278   52.1902 C.ar    1  ZINC000864477301   -0.0600
     21 C21        -7.6999    1.2430   52.9047 C.3     1  ZINC000864477301   -0.1100
     22 C22       -10.0320    1.8056   52.1920 C.ar    1  ZINC000864477301   -0.1100
     23 C23       -10.9403    2.6166   51.5372 C.ar    1  ZINC000864477301   -0.1000
     24 C24       -10.5076    3.7528   50.8778 C.ar    1  ZINC000864477301   -0.1100
     25 C25        -9.1661    4.0841   50.8769 C.ar    1  ZINC000864477301   -0.0200
     26 Cl26       -8.6236    5.5105   50.0497 Cl      1  ZINC000864477301   -0.0600
     27 C27        -1.4597    2.8973   51.7704 C.ar    1  ZINC000864477301    0.0100
     28 H28         1.9276    2.4889   48.8203 H       1  ZINC000864477301    0.0700
     29 H29         3.3814    3.3467   49.3852 H       1  ZINC000864477301    0.0700
     30 H30         3.5440    1.8692   48.4061 H       1  ZINC000864477301    0.0800
     31 H31         2.5250    0.5436   50.2372 H       1  ZINC000864477301    0.0700
     32 H32         3.9786    1.4013   50.8021 H       1  ZINC000864477301    0.0700
     33 H33         1.4549    4.6114   51.4662 H       1  ZINC000864477301    0.1400
     34 H34        -0.0947    6.5020   51.7388 H       1  ZINC000864477301    0.1400
     35 H35        -2.5019    6.0928   52.0352 H       1  ZINC000864477301    0.1500
     36 H36        -4.2748    2.6589   48.5871 H       1  ZINC000864477301    0.0700
     37 H37        -2.8388    2.9139   49.6076 H       1  ZINC000864477301    0.0700
     38 H38        -4.0313    1.6668   50.0448 H       1  ZINC000864477301    0.0700
     39 H39        -6.4904    4.0159   52.3052 H       1  ZINC000864477301    0.4100
     40 H40        -7.5921    1.5778   53.9365 H       1  ZINC000864477301    0.0800
     41 H41        -8.0582    0.2137   52.8924 H       1  ZINC000864477301    0.0700
     42 H42        -6.7341    1.2975   52.4024 H       1  ZINC000864477301    0.0700
     43 H43       -10.3732    0.9187   52.7052 H       1  ZINC000864477301    0.1400
     44 H44       -11.9898    2.3622   51.5404 H       1  ZINC000864477301    0.1400
     45 H45       -11.2197    4.3842   50.3670 H       1  ZINC000864477301    0.1400
     46 H46        -1.8446    1.8882   51.7809 H       1  ZINC000864477301    0.1400
@<TRIPOS>BOND
     1     1     2    1
     2     1    28    1
     3     1    29    1
     4     1    30    1
     5     2     3    1
     6     2    31    1
     7     2    32    1
     8     3     4    1
     9     4     5    2
    10     4     6    1
    11     6    27   ar
    12     6     7   ar
    13     7     8   ar
    14     7    33    1
    15     8     9   ar
    16     8    34    1
    17     9    10   ar
    18     9    35    1
    19    10    11    1
    20    10    27   ar
    21    11    12    2
    22    11    13    1
    23    13    14    1
    24    13    15    1
    25    13    16    1
    26    15    36    1
    27    15    37    1
    28    15    38    1
    29    16    17    2
    30    16    18   am
    31    18    19    1
    32    18    39    1
    33    19    25   ar
    34    19    20   ar
    35    20    21    1
    36    20    22   ar
    37    21    40    1
    38    21    41    1
    39    21    42    1
    40    22    23   ar
    41    22    43    1
    42    23    24   ar
    43    23    44    1
    44    24    25   ar
    45    24    45    1
    46    25    26    1
    47    27    46    1
@<TRIPOS>SUBSTRUCTURE
     1 ZINC000864477301        1 TEMP              0 ****  ****    0 ROOT


##########                                Name:    ZINC000151303733
##########                DOCK_Rotatable_Bonds:                   7
##########                         Heavy_Atoms:                  26
##########                    Molecular_Weight:             369.444
##########                DOCK_Rotatable_Bonds:                   7
##########                       Formal_Charge:        -1.93715e-07
##########                     HBond_Acceptors:                   7
##########                        HBond_Donors:                   2
##########                         Heavy_Atoms:                  26
##########                          Grid_Score:          -27.156832
##########                     Grid_vdw_energy:          -27.457403
##########                      Grid_es_energy:            0.300572
##########           Internal_energy_repulsive:            7.323224

@<TRIPOS>MOLECULE
ZINC000151303733
 45 48 1 0 0
SMALL
USER_CHARGES


@<TRIPOS>ATOM
      1 C1         -9.8832    2.2203   61.2853 C.3     1  ZINC000151303733   -0.1000
      2 C2         -9.8236    0.7476   60.9710 C.2     1  ZINC000151303733   -0.1200
      3 C3        -10.5358   -0.1586   61.6418 C.2     1  ZINC000151303733   -0.2000
      4 S4        -10.2104   -1.7629   60.9990 S.3     1  ZINC000151303733    0.1200
      5 C5         -9.0903   -1.0975   59.8176 C.2     1  ZINC000151303733   -0.2400
      6 C6         -9.0277    0.2318   59.9577 C.2     1  ZINC000151303733    0.1200
      7 N7         -8.2110    1.0423   59.1474 N.am    1  ZINC000151303733   -0.6400
      8 C8         -8.6730    1.4963   57.9655 C.2     1  ZINC000151303733    0.5100
      9 O9         -9.7928    1.2062   57.6001 O.2     1  ZINC000151303733   -0.5100
     10 C10        -7.7985    2.3642   57.0978 C.3     1  ZINC000151303733    0.1000
     11 N11        -8.0517    2.0576   55.6878 N.am    1  ZINC000151303733   -0.7100
     12 C12        -8.8371    2.8692   54.9522 C.2     1  ZINC000151303733    0.5200
     13 O13        -9.3351    3.8526   55.4580 O.2     1  ZINC000151303733   -0.5100
     14 C14        -9.0961    2.5549   53.5013 C.3     1  ZINC000151303733    0.1600
     15 H15        -9.6886    3.3487   53.0465 H       1  ZINC000151303733    0.1300
     16 C16        -9.8155    1.2351   53.3774 C.ar    1  ZINC000151303733   -0.0900
     17 C17       -11.0293    0.7771   53.8340 C.ar    1  ZINC000151303733   -0.0900
     18 C18       -11.4293   -0.5192   53.5540 C.ar    1  ZINC000151303733   -0.0800
     19 C19       -10.6111   -1.3555   52.8158 C.ar    1  ZINC000151303733   -0.1200
     20 C20        -9.3914   -0.9059   52.3529 C.ar    1  ZINC000151303733   -0.0400
     21 C21        -8.9814    0.3990   52.6310 C.ar    1  ZINC000151303733   -0.1500
     22 C22        -7.7621    1.1533   52.2829 C.2     1  ZINC000151303733    0.5600
     23 O23        -6.8331    0.7115   51.6353 O.2     1  ZINC000151303733   -0.5100
     24 N24        -7.8253    2.4002   52.7843 N.am    1  ZINC000151303733   -0.5700
     25 C25        -6.7953    3.4317   52.6384 C.3     1  ZINC000151303733    0.0900
     26 C26        -6.6721    4.1194   51.2771 C.3     1  ZINC000151303733   -0.1800
     27 C27        -7.2634    4.8782   52.4668 C.3     1  ZINC000151303733   -0.1900
     28 H28       -10.6730    2.6859   60.6957 H       1  ZINC000151303733    0.0700
     29 H29       -10.0929    2.3573   62.3461 H       1  ZINC000151303733    0.0700
     30 H30        -8.9269    2.6829   61.0412 H       1  ZINC000151303733    0.0600
     31 H31       -11.2100    0.0595   62.4568 H       1  ZINC000151303733    0.1700
     32 H32        -8.5406   -1.6733   59.0878 H       1  ZINC000151303733    0.2000
     33 H33        -7.3156    1.2741   59.4395 H       1  ZINC000151303733    0.4200
     34 H34        -8.0250    3.4133   57.2878 H       1  ZINC000151303733    0.1100
     35 H35        -6.7510    2.1709   57.3291 H       1  ZINC000151303733    0.1100
     36 H36        -7.6543    1.2705   55.2836 H       1  ZINC000151303733    0.4100
     37 H37       -11.6700    1.4275   54.4109 H       1  ZINC000151303733    0.1300
     38 H38       -12.3824   -0.8781   53.9134 H       1  ZINC000151303733    0.1400
     39 H39       -10.9284   -2.3653   52.6011 H       1  ZINC000151303733    0.1400
     40 H40        -8.7558   -1.5620   51.7766 H       1  ZINC000151303733    0.1400
     41 H41        -5.8778    3.2631   53.2022 H       1  ZINC000151303733    0.1400
     42 H42        -5.6733    4.4032   50.9452 H       1  ZINC000151303733    0.1000
     43 H43        -7.3573    3.8043   50.4902 H       1  ZINC000151303733    0.1300
     44 H44        -8.3377    5.0624   52.4626 H       1  ZINC000151303733    0.1000
     45 H45        -6.6538    5.6613   52.9176 H       1  ZINC000151303733    0.1000
@<TRIPOS>BOND
     1     1     2    1
     2     1    28    1
     3     1    29    1
     4     1    30    1
     5     2     6    1
     6     2     3    2
     7     3     4    1
     8     3    31    1
     9     4     5    1
    10     5     6    2
    11     5    32    1
    12     6     7    1
    13     7     8   am
    14     7    33    1
    15     8     9    2
    16     8    10    1
    17    10    11    1
    18    10    34    1
    19    10    35    1
    20    11    12   am
    21    11    36    1
    22    12    13    2
    23    12    14    1
    24    14    15    1
    25    14    24    1
    26    14    16    1
    27    16    21   ar
    28    16    17   ar
    29    17    18   ar
    30    17    37    1
    31    18    19   ar
    32    18    38    1
    33    19    20   ar
    34    19    39    1
    35    20    21   ar
    36    20    40    1
    37    21    22    1
    38    22    23    2
    39    22    24   am
    40    24    25    1
    41    25    27    1
    42    25    26    1
    43    25    41    1
    44    26    27    1
    45    26    42    1
    46    26    43    1
    47    27    44    1
    48    27    45    1
@<TRIPOS>SUBSTRUCTURE
     1 ZINC000151303733        1 TEMP              0 ****  ****    0 ROOT


##########                                Name:    ZINC000274267583
##########                DOCK_Rotatable_Bonds:                   5
##########                         Heavy_Atoms:                  24
##########                    Molecular_Weight:             349.407
##########                DOCK_Rotatable_Bonds:                   5
##########                       Formal_Charge:           0.0300001
##########                     HBond_Acceptors:                   7
##########                        HBond_Donors:                   1
##########                         Heavy_Atoms:                  24
##########                          Grid_Score:          -27.146709
##########                     Grid_vdw_energy:          -26.425758
##########                      Grid_es_energy:           -0.720951
##########           Internal_energy_repulsive:           12.014763

@<TRIPOS>MOLECULE
ZINC000274267583
 43 45 1 0 0
SMALL
USER_CHARGES


@<TRIPOS>ATOM
      1 C1         -9.2203    2.1368   65.5298 C.3     1  ZINC000274267583    0.0200
      2 O2         -8.9056    0.8183   65.0778 O.3     1  ZINC000274267583   -0.3100
      3 C3         -9.3014    0.4862   63.8208 C.ar    1  ZINC000274267583    0.1900
      4 C4        -10.3861    1.1284   63.2414 C.ar    1  ZINC000274267583   -0.2300
      5 C5        -10.7861    0.7893   61.9633 C.ar    1  ZINC000274267583    0.0300
      6 C6        -10.1067   -0.1896   61.2619 C.ar    1  ZINC000274267583   -0.7200
      7 S7        -10.6198   -0.6202   59.6323 S.o2    1  ZINC000274267583    2.7000
      8 O8        -10.2267    0.4550   58.7904 O.2     1  ZINC000274267583   -0.9500
      9 O9        -10.2051   -1.9631   59.4226 O.2     1  ZINC000274267583   -0.9500
     10 N10       -12.2758   -0.6361   59.6278 N.am    1  ZINC000274267583   -1.1100
     11 C11       -13.0020   -1.5457   60.5175 C.3     1  ZINC000274267583    0.2100
     12 H12       -12.2891   -2.1435   61.0853 H       1  ZINC000274267583    0.1000
     13 C13       -13.8666   -0.7313   61.4829 C.3     1  ZINC000274267583   -0.1800
     14 C14       -14.8287   -1.6907   62.1950 C.3     1  ZINC000274267583    0.0600
     15 O15       -15.7148   -2.2448   61.2216 O.3     1  ZINC000274267583   -0.3100
     16 C16       -15.1702   -2.7615   60.0882 C.ar    1  ZINC000274267583    0.1100
     17 C17       -15.9446   -3.6169   59.3117 C.ar    1  ZINC000274267583   -0.1100
     18 C18       -15.4317   -4.1593   58.1511 C.ar    1  ZINC000274267583   -0.1600
     19 C19       -14.1387   -3.8505   57.7563 C.ar    1  ZINC000274267583    0.0900
     20 O20       -13.6308   -4.3809   56.6118 O.3     1  ZINC000274267583   -0.3200
     21 C21       -14.3515   -4.1280   55.4040 C.3     1  ZINC000274267583    0.0300
     22 C22       -13.3653   -3.0002   58.5302 C.ar    1  ZINC000274267583   -0.1000
     23 C23       -13.8790   -2.4567   59.6963 C.ar    1  ZINC000274267583   -0.1400
     24 C24        -9.0252   -0.8308   61.8370 C.ar    1  ZINC000274267583    0.0200
     25 C25        -8.6179   -0.4917   63.1128 C.ar    1  ZINC000274267583   -0.1700
     26 H26        -8.7507    2.8682   64.8721 H       1  ZINC000274267583    0.0600
     27 H27       -10.3012    2.2772   65.5164 H       1  ZINC000274267583    0.0600
     28 H28        -8.8492    2.2708   66.5460 H       1  ZINC000274267583    0.1100
     29 H29       -10.9174    1.8925   63.7891 H       1  ZINC000274267583    0.1400
     30 H30       -11.6304    1.2890   61.5119 H       1  ZINC000274267583    0.1400
     31 H31       -12.7650   -0.0433   59.0360 H       1  ZINC000274267583    0.4200
     32 H32       -13.2310   -0.2362   62.2170 H       1  ZINC000274267583    0.1000
     33 H33       -14.4356    0.0139   60.9270 H       1  ZINC000274267583    0.0900
     34 H34       -14.2626   -2.4901   62.6734 H       1  ZINC000274267583    0.0700
     35 H35       -15.4017   -1.1461   62.9454 H       1  ZINC000274267583    0.1200
     36 H36       -16.9517   -3.8578   59.6185 H       1  ZINC000274267583    0.1400
     37 H37       -16.0362   -4.8236   57.5514 H       1  ZINC000274267583    0.1400
     38 H38       -15.3602   -4.5317   55.4914 H       1  ZINC000274267583    0.0600
     39 H39       -14.4041   -3.0532   55.2306 H       1  ZINC000274267583    0.0600
     40 H40       -13.8398   -4.6062   54.5688 H       1  ZINC000274267583    0.1000
     41 H41       -12.3583   -2.7600   58.2229 H       1  ZINC000274267583    0.1300
     42 H42        -8.4959   -1.5949   61.2870 H       1  ZINC000274267583    0.1500
     43 H43        -7.7730   -0.9928   63.5615 H       1  ZINC000274267583    0.1400
@<TRIPOS>BOND
     1     1     2    1
     2     1    26    1
     3     1    27    1
     4     1    28    1
     5     2     3    1
     6     3    25   ar
     7     3     4   ar
     8     4     5   ar
     9     4    29    1
    10     5     6   ar
    11     5    30    1
    12     6     7    1
    13     6    24   ar
    14     7     8    2
    15     7     9    2
    16     7    10   am
    17    10    11    1
    18    10    31    1
    19    11    12    1
    20    11    23    1
    21    11    13    1
    22    13    14    1
    23    13    32    1
    24    13    33    1
    25    14    15    1
    26    14    34    1
    27    14    35    1
    28    15    16    1
    29    16    23   ar
    30    16    17   ar
    31    17    18   ar
    32    17    36    1
    33    18    19   ar
    34    18    37    1
    35    19    20    1
    36    19    22   ar
    37    20    21    1
    38    21    38    1
    39    21    39    1
    40    21    40    1
    41    22    23   ar
    42    22    41    1
    43    24    25   ar
    44    24    42    1
    45    25    43    1
@<TRIPOS>SUBSTRUCTURE
     1 ZINC000274267583        1 TEMP              0 ****  ****    0 ROOT


##########                                Name:    ZINC000599228306
##########                DOCK_Rotatable_Bonds:                   8
##########                         Heavy_Atoms:                  25
##########                    Molecular_Weight:             379.382
##########                DOCK_Rotatable_Bonds:                   8
##########                       Formal_Charge:        -4.09782e-08
##########                     HBond_Acceptors:                  10
##########                        HBond_Donors:                   1
##########                         Heavy_Atoms:                  25
##########                          Grid_Score:          -27.106501
##########                     Grid_vdw_energy:          -26.773962
##########                      Grid_es_energy:           -0.332539
##########           Internal_energy_repulsive:           18.425848

@<TRIPOS>MOLECULE
ZINC000599228306
 44 44 1 0 0
SMALL
USER_CHARGES


@<TRIPOS>ATOM
      1 C1         -3.3731    2.7542   56.4153 C.3     1  ZINC000599228306    0.0400
      2 O2         -4.2798    3.0822   55.3296 O.3     1  ZINC000599228306   -0.3500
      3 C3         -3.7318    3.5814   54.2046 C.2     1  ZINC000599228306    0.5100
      4 O4         -2.7840    4.3382   54.2747 O.2     1  ZINC000599228306   -0.4800
      5 C5         -4.2828    3.2091   52.8873 C.ar    1  ZINC000599228306   -0.1500
      6 C6         -3.5119    2.4692   51.9878 C.ar    1  ZINC000599228306   -0.0100
      7 C7         -4.0340    2.1244   50.7568 C.ar    1  ZINC000599228306    0.0700
      8 F8         -3.2894    1.4087   49.8857 F       1  ZINC000599228306   -0.1200
      9 C9         -5.3202    2.5101   50.4126 C.ar    1  ZINC000599228306    0.0100
     10 C10        -6.0895    3.2425   51.2975 C.ar    1  ZINC000599228306   -0.7100
     11 S11        -7.7233    3.7268   50.8493 S.o2    1  ZINC000599228306    2.7000
     12 O12        -7.7569    5.1453   50.9272 O.2     1  ZINC000599228306   -0.9200
     13 O13        -8.0460    3.0054   49.6683 O.2     1  ZINC000599228306   -0.9300
     14 N14        -8.7412    3.1693   52.0306 N.am    1  ZINC000599228306   -1.1000
     15 C15        -8.8236    1.7333   52.3089 C.3     1  ZINC000599228306    0.1600
     16 H16        -8.1662    1.1930   51.6276 H       1  ZINC000599228306    0.1300
     17 C17        -8.3914    1.4680   53.7523 C.3     1  ZINC000599228306   -0.1700
     18 C18       -10.2427    1.2646   52.1150 C.2     1  ZINC000599228306    0.4700
     19 O19       -11.1526    2.0582   52.1607 O.2     1  ZINC000599228306   -0.4900
     20 O20       -10.4958   -0.0345   51.8916 O.3     1  ZINC000599228306   -0.3400
     21 C21       -11.5659   -0.6399   52.6639 C.3     1  ZINC000599228306    0.1200
     22 C22       -11.5108   -0.1244   54.1033 C.3     1  ZINC000599228306   -0.1900
     23 C23       -12.9146   -0.2726   52.0419 C.3     1  ZINC000599228306   -0.1400
     24 C24       -11.4000   -2.1610   52.6602 C.3     1  ZINC000599228306   -0.1800
     25 C25        -5.5820    3.5905   52.5356 C.ar    1  ZINC000599228306    0.2500
     26 F26        -6.3352    4.3059   53.3994 F       1  ZINC000599228306   -0.0900
     27 H27        -3.9424    2.3631   57.2584 H       1  ZINC000599228306    0.1100
     28 H28        -2.6598    2.0021   56.0782 H       1  ZINC000599228306    0.0700
     29 H29        -2.8364    3.6513   56.7240 H       1  ZINC000599228306    0.0700
     30 H30        -2.5096    2.1678   52.2543 H       1  ZINC000599228306    0.1700
     31 H31        -5.7232    2.2375   49.4485 H       1  ZINC000599228306    0.1800
     32 H32        -9.2829    3.7935   52.5383 H       1  ZINC000599228306    0.4300
     33 H33        -8.4527    0.3995   53.9593 H       1  ZINC000599228306    0.0900
     34 H34        -7.3650    1.8069   53.8925 H       1  ZINC000599228306    0.0700
     35 H35        -9.0488    2.0083   54.4335 H       1  ZINC000599228306    0.0800
     36 H36       -11.6289    0.9592   54.1060 H       1  ZINC000599228306    0.0600
     37 H37       -12.3140   -0.5789   54.6832 H       1  ZINC000599228306    0.0700
     38 H38       -10.5498   -0.3861   54.5465 H       1  ZINC000599228306    0.0800
     39 H39       -12.9539   -0.6399   51.0165 H       1  ZINC000599228306    0.0700
     40 H40       -13.7180   -0.7271   52.6217 H       1  ZINC000599228306    0.0800
     41 H41       -13.0329    0.8110   52.0446 H       1  ZINC000599228306    0.0700
     42 H42       -10.4392   -2.4226   53.1034 H       1  ZINC000599228306    0.0800
     43 H43       -12.2034   -2.6155   53.2400 H       1  ZINC000599228306    0.0700
     44 H44       -11.4393   -2.5282   51.6347 H       1  ZINC000599228306    0.0600
@<TRIPOS>BOND
     1     1     2    1
     2     1    27    1
     3     1    28    1
     4     1    29    1
     5     2     3    1
     6     3     4    2
     7     3     5    1
     8     5    25   ar
     9     5     6   ar
    10     6     7   ar
    11     6    30    1
    12     7     8    1
    13     7     9   ar
    14     9    10   ar
    15     9    31    1
    16    10    11    1
    17    10    25   ar
    18    11    12    2
    19    11    13    2
    20    11    14   am
    21    14    15    1
    22    14    32    1
    23    15    16    1
    24    15    17    1
    25    15    18    1
    26    17    33    1
    27    17    34    1
    28    17    35    1
    29    18    19    2
    30    18    20    1
    31    20    21    1
    32    21    22    1
    33    21    23    1
    34    21    24    1
    35    22    36    1
    36    22    37    1
    37    22    38    1
    38    23    39    1
    39    23    40    1
    40    23    41    1
    41    24    42    1
    42    24    43    1
    43    24    44    1
    44    25    26    1
@<TRIPOS>SUBSTRUCTURE
     1 ZINC000599228306        1 TEMP              0 ****  ****    0 ROOT


##########                                Name:    ZINC000328606936
##########                DOCK_Rotatable_Bonds:                   6
##########                         Heavy_Atoms:                  23
##########                    Molecular_Weight:             338.428
##########                DOCK_Rotatable_Bonds:                   6
##########                       Formal_Charge:           0.0100001
##########                     HBond_Acceptors:                   7
##########                        HBond_Donors:                   2
##########                         Heavy_Atoms:                  23
##########                          Grid_Score:          -27.105238
##########                     Grid_vdw_energy:          -27.300879
##########                      Grid_es_energy:            0.195641
##########           Internal_energy_repulsive:            7.327811

@<TRIPOS>MOLECULE
ZINC000328606936
 45 47 1 0 0
SMALL
USER_CHARGES


@<TRIPOS>ATOM
      1 C1        -11.4390   -3.2607   56.7330 C.3     1  <0>        -0.0500
      2 N2        -12.3510   -3.0546   57.8659 N.4     1  <0>        -0.3500
      3 H3        -12.2773   -3.8334   58.5032 H       1  <0>         0.4200
      4 C4        -13.7309   -2.9551   57.3720 C.3     1  <0>        -0.0900
      5 C5        -14.5319   -4.1262   57.8797 C.2     1  <0>         0.4900
      6 O6        -14.5330   -5.1775   57.2623 O.co2   1  <0>        -0.6700
      7 O7        -15.1787   -4.0225   58.9080 O.co2   1  <0>        -0.6400
      8 C8        -11.9906   -1.8140   58.5653 C.3     1  <0>         0.0100
      9 H9        -12.2851   -0.9472   57.9737 H       1  <0>         0.1600
     10 C10       -10.4736   -1.7795   58.8496 C.3     1  <0>         0.1000
     11 N11       -10.3574   -1.1442   60.1829 N.am    1  <0>        -0.6200
     12 C12        -9.4352   -0.2527   60.5964 C.2     1  <0>         0.6200
     13 O13        -8.5630    0.1190   59.8332 O.2     1  <0>        -0.5100
     14 C14        -9.4824    0.2693   61.9653 C.2     1  <0>        -0.2800
     15 C15        -8.4913    0.1498   62.8906 C.2     1  <0>        -0.0300
     16 C16        -8.7846    0.7310   64.1106 C.2     1  <0>        -0.1200
     17 C17       -10.0043    1.3128   64.1617 C.2     1  <0>        -0.1900
     18 C18       -10.5652    2.0185   65.3820 C.3     1  <0>        -0.0500
     19 C19        -9.7450    1.6087   66.6079 C.3     1  <0>        -0.1200
     20 C20        -8.2567    1.7871   66.2941 C.3     1  <0>        -0.1200
     21 C21        -7.8219    0.7171   65.2910 C.3     1  <0>        -0.0600
     22 S22       -10.8237    1.1556   62.6718 S.3     1  <0>         0.2000
     23 C23       -11.4851   -1.7111   60.9585 C.3     1  <0>         0.0600
     24 C24       -12.6599   -1.7676   59.9546 C.3     1  <0>         0.0800
     25 H25       -13.2553   -2.6658   60.1183 H       1  <0>         0.1000
     26 O26       -13.4766   -0.6016   60.0794 O.3     1  <0>        -0.5400
     27 H27       -11.5187   -2.4194   56.0446 H       1  <0>         0.1100
     28 H28       -10.4151   -3.3346   57.0996 H       1  <0>         0.1100
     29 H29       -11.7065   -4.1813   56.2141 H       1  <0>         0.1600
     30 H30       -14.1783   -2.0272   57.7282 H       1  <0>         0.1200
     31 H31       -13.7281   -2.9621   56.2820 H       1  <0>         0.1300
     32 H32       -10.0683   -2.7911   58.8741 H       1  <0>         0.1000
     33 H33        -9.9594   -1.1813   58.0975 H       1  <0>         0.1200
     34 H34        -7.5579   -0.3550   62.6897 H       1  <0>         0.1500
     35 H35       -10.4999    3.0975   65.2425 H       1  <0>         0.0900
     36 H36       -11.6062    1.7288   65.5253 H       1  <0>         0.0800
     37 H37       -10.0170    2.2375   67.4556 H       1  <0>         0.0700
     38 H38        -9.9445    0.5643   66.8477 H       1  <0>         0.0700
     39 H39        -8.0907    2.7762   65.8671 H       1  <0>         0.0700
     40 H40        -7.6764    1.6836   67.2110 H       1  <0>         0.0700
     41 H41        -7.8431   -0.2622   65.7692 H       1  <0>         0.0800
     42 H42        -6.8126    0.9331   64.9409 H       1  <0>         0.0800
     43 H43       -11.2380   -2.7120   61.3123 H       1  <0>         0.1000
     44 H44       -11.7342   -1.0613   61.7974 H       1  <0>         0.1000
     45 H45       -14.1182   -0.4924   59.3642 H       1  <0>         0.4000
@<TRIPOS>BOND
     1     1     2    1
     2     1    27    1
     3     1    28    1
     4     1    29    1
     5     2     3    1
     6     2     4    1
     7     2     8    1
     8     4     5    1
     9     4    30    1
    10     4    31    1
    11     5     6   ar
    12     5     7   ar
    13     8     9    1
    14     8    24    1
    15     8    10    1
    16    10    11    1
    17    10    32    1
    18    10    33    1
    19    11    12   am
    20    11    23    1
    21    12    13    2
    22    12    14    1
    23    14    22    1
    24    14    15    2
    25    15    16    1
    26    15    34    1
    27    16    21    1
    28    16    17    2
    29    17    18    1
    30    17    22    1
    31    18    19    1
    32    18    35    1
    33    18    36    1
    34    19    20    1
    35    19    37    1
    36    19    38    1
    37    20    21    1
    38    20    39    1
    39    20    40    1
    40    21    41    1
    41    21    42    1
    42    23    24    1
    43    23    43    1
    44    23    44    1
    45    24    25    1
    46    24    26    1
    47    26    45    1
@<TRIPOS>SUBSTRUCTURE
     1 <0>         1 TEMP              0 ****  ****    0 ROOT


##########                                Name:    ZINC001625935330
##########                DOCK_Rotatable_Bonds:                   5
##########                         Heavy_Atoms:                  25
##########                    Molecular_Weight:             327.385
##########                DOCK_Rotatable_Bonds:                   5
##########                       Formal_Charge:           0.0199995
##########                     HBond_Acceptors:                   4
##########                        HBond_Donors:                   1
##########                         Heavy_Atoms:                  25
##########                          Grid_Score:          -27.102238
##########                     Grid_vdw_energy:          -26.329918
##########                      Grid_es_energy:           -0.772320
##########           Internal_energy_repulsive:           15.889421

@<TRIPOS>MOLECULE
ZINC001625935330
 42 44 1 0 0
SMALL
USER_CHARGES


@<TRIPOS>ATOM
      1 C1         -9.3157    3.3365   58.3954 C.3     1  ZINC001625935330   -0.1600
      2 C2        -10.0137    2.1727   57.6887 C.3     1  ZINC001625935330    0.1800
      3 H3        -11.0545    2.4348   57.4986 H       1  ZINC001625935330    0.1000
      4 N4         -9.3392    1.8981   56.4176 N.am    1  ZINC001625935330   -0.7100
      5 C5         -9.9689    1.1887   55.4601 C.2     1  ZINC001625935330    0.5800
      6 O6        -11.0955    0.7756   55.6518 O.2     1  ZINC001625935330   -0.5300
      7 C7         -9.2875    0.9125   54.1737 C.ar    1  ZINC001625935330    0.0800
      8 C8         -8.1541    1.6390   53.8251 C.ar    1  ZINC001625935330   -0.1000
      9 C9         -7.5235    1.3651   52.6083 C.ar    1  ZINC001625935330    0.0000
     10 C10        -6.3114    2.1136   52.1936 C.ar    1  ZINC001625935330   -0.0600
     11 C11        -5.7870    3.1073   53.0177 C.ar    1  ZINC001625935330   -0.1000
     12 C12        -4.6590    3.8001   52.6272 C.ar    1  ZINC001625935330   -0.1200
     13 C13        -4.0491    3.5095   51.4202 C.ar    1  ZINC001625935330   -0.1100
     14 C14        -4.5653    2.5239   50.5980 C.ar    1  ZINC001625935330   -0.1200
     15 C15        -5.6898    1.8213   50.9811 C.ar    1  ZINC001625935330   -0.1000
     16 C16        -8.0641    0.3679   51.7929 C.ar    1  ZINC001625935330   -0.1400
     17 C17        -9.1952   -0.3088   52.2137 C.ar    1  ZINC001625935330    0.1100
     18 N18        -9.7621   -0.0303   53.3676 N.ar    1  ZINC001625935330   -0.4600
     19 C19        -9.9559    0.9467   58.5631 C.ar    1  ZINC001625935330   -0.0900
     20 C20        -8.7326    0.3908   58.8923 C.ar    1  ZINC001625935330   -0.0800
     21 C21        -8.6705   -0.7349   59.6946 C.ar    1  ZINC001625935330   -0.1100
     22 C22        -9.8294   -1.3102   60.1722 C.ar    1  ZINC001625935330   -0.0700
     23 C23       -11.0677   -0.7540   59.8442 C.ar    1  ZINC001625935330   -0.0200
     24 C24       -12.2752   -1.3459   60.3366 C.1     1  ZINC001625935330    0.2500
     25 N25       -13.2330   -1.8155   60.7271 N.1     1  ZINC001625935330   -0.4100
     26 C26       -11.1229    0.3847   59.0382 C.ar    1  ZINC001625935330   -0.0600
     27 H27        -9.8176    3.5409   59.3412 H       1  ZINC001625935330    0.0700
     28 H28        -8.2749    3.0746   58.5855 H       1  ZINC001625935330    0.0600
     29 H29        -9.3575    4.2233   57.7630 H       1  ZINC001625935330    0.0700
     30 H30        -8.4396    2.2269   56.2649 H       1  ZINC001625935330    0.4100
     31 H31        -7.7677    2.4026   54.4838 H       1  ZINC001625935330    0.1500
     32 H32        -6.2627    3.3353   53.9602 H       1  ZINC001625935330    0.1300
     33 H33        -4.2520    4.5707   53.2650 H       1  ZINC001625935330    0.1300
     34 H34        -3.1668    4.0543   51.1182 H       1  ZINC001625935330    0.1300
     35 H35        -4.0853    2.3014   49.6566 H       1  ZINC001625935330    0.1300
     36 H36        -6.0918    1.0519   50.3386 H       1  ZINC001625935330    0.1300
     37 H37        -7.6049    0.1283   50.8453 H       1  ZINC001625935330    0.1400
     38 H38        -9.6171   -1.0804   51.5866 H       1  ZINC001625935330    0.1700
     39 H39        -7.8220    0.8373   58.5210 H       1  ZINC001625935330    0.1300
     40 H40        -7.7122   -1.1642   59.9472 H       1  ZINC001625935330    0.1400
     41 H41        -9.7795   -2.1890   60.7980 H       1  ZINC001625935330    0.1400
     42 H42       -12.0773    0.8198   58.7808 H       1  ZINC001625935330    0.1400
@<TRIPOS>BOND
     1     1     2    1
     2     1    27    1
     3     1    28    1
     4     1    29    1
     5     2     3    1
     6     2     4    1
     7     2    19    1
     8     4     5   am
     9     4    30    1
    10     5     6    2
    11     5     7    1
    12     7    18   ar
    13     7     8   ar
    14     8     9   ar
    15     8    31    1
    16     9    10    1
    17     9    16   ar
    18    10    15   ar
    19    10    11   ar
    20    11    12   ar
    21    11    32    1
    22    12    13   ar
    23    12    33    1
    24    13    14   ar
    25    13    34    1
    26    14    15   ar
    27    14    35    1
    28    15    36    1
    29    16    17   ar
    30    16    37    1
    31    17    18   ar
    32    17    38    1
    33    19    26   ar
    34    19    20   ar
    35    20    21   ar
    36    20    39    1
    37    21    22   ar
    38    21    40    1
    39    22    23   ar
    40    22    41    1
    41    23    24    1
    42    23    26   ar
    43    24    25    3
    44    26    42    1
@<TRIPOS>SUBSTRUCTURE
     1 ZINC001625935330        1 TEMP              0 ****  ****    0 ROOT


##########                                Name:    ZINC000632456679
##########                DOCK_Rotatable_Bonds:                   6
##########                         Heavy_Atoms:                  24
##########                    Molecular_Weight:              374.82
##########                DOCK_Rotatable_Bonds:                   6
##########                       Formal_Charge:          -0.0299999
##########                     HBond_Acceptors:                   9
##########                        HBond_Donors:                   1
##########                         Heavy_Atoms:                  24
##########                          Grid_Score:          -27.086679
##########                     Grid_vdw_energy:          -26.627586
##########                      Grid_es_energy:           -0.459093
##########           Internal_energy_repulsive:           35.026234

@<TRIPOS>MOLECULE
ZINC000632456679
 40 41 1 0 0
SMALL
USER_CHARGES


@<TRIPOS>ATOM
      1 C1        -14.9337   -2.3170   56.5217 C.3     1  ZINC000632456679   -0.1600
      2 C2        -13.6088   -3.0602   56.7045 C.3     1  ZINC000632456679    0.1900
      3 C3        -13.8841   -4.4739   57.2206 C.3     1  ZINC000632456679   -0.2000
      4 C4        -12.8796   -3.1403   55.3619 C.3     1  ZINC000632456679   -0.6300
      5 S5        -12.2486   -1.4986   54.9177 S.o2    1  ZINC000632456679    2.4100
      6 C6        -11.3822   -1.8389   53.3607 C.3     1  ZINC000632456679   -0.6600
      7 O7        -13.3533   -0.6476   54.6444 O.2     1  ZINC000632456679   -0.9300
      8 O8        -11.2919   -1.1027   55.8909 O.2     1  ZINC000632456679   -0.9300
      9 N9        -12.7750   -2.3413   57.6710 N.am    1  ZINC000632456679   -0.7200
     10 C10       -11.5627   -2.8252   58.0066 C.2     1  ZINC000632456679    0.6200
     11 O11       -11.1618   -3.8593   57.5084 O.2     1  ZINC000632456679   -0.5000
     12 C12       -10.7223   -2.1003   58.9786 C.2     1  ZINC000632456679   -0.0900
     13 C13       -11.1145   -1.6007   60.1880 C.2     1  ZINC000632456679   -0.1300
     14 C14        -9.9320   -1.0072   60.7094 C.2     1  ZINC000632456679    0.0400
     15 C15        -9.7854   -0.3109   62.0117 C.ar    1  ZINC000632456679   -0.0500
     16 C16        -8.6860   -0.5745   62.8256 C.ar    1  ZINC000632456679   -0.0600
     17 C17        -8.5538    0.0755   64.0361 C.ar    1  ZINC000632456679   -0.1100
     18 C18        -9.5102    0.9877   64.4437 C.ar    1  ZINC000632456679   -0.0700
     19 C19       -10.6054    1.2554   63.6414 C.ar    1  ZINC000632456679   -0.0800
     20 Cl20      -11.8012    2.4017   64.1606 Cl      1  ZINC000632456679   -0.0400
     21 C21       -10.7453    0.6145   62.4230 C.ar    1  ZINC000632456679    0.1400
     22 F22       -11.8141    0.8756   61.6390 F       1  ZINC000632456679   -0.1100
     23 N23        -8.9981   -1.1983   59.8116 N.2     1  ZINC000632456679   -0.3200
     24 O24        -9.4147   -1.8049   58.8526 O.3     1  ZINC000632456679    0.1400
     25 H25       -15.4533   -2.2599   57.4782 H       1  ZINC000632456679    0.0900
     26 H26       -14.7375   -1.3098   56.1540 H       1  ZINC000632456679    0.0600
     27 H27       -15.5541   -2.8518   55.8026 H       1  ZINC000632456679    0.0700
     28 H28       -14.5045   -5.0088   56.5015 H       1  ZINC000632456679    0.0800
     29 H29       -12.9403   -5.0035   57.3507 H       1  ZINC000632456679    0.0800
     30 H30       -14.4037   -4.4169   58.1771 H       1  ZINC000632456679    0.0900
     31 H31       -12.0477   -3.8401   55.4414 H       1  ZINC000632456679    0.1600
     32 H32       -13.5712   -3.4840   54.5927 H       1  ZINC000632456679    0.1400
     33 H33       -12.0879   -2.2374   52.6318 H       1  ZINC000632456679    0.1300
     34 H34       -10.9468   -0.9158   52.9779 H       1  ZINC000632456679    0.1300
     35 H35       -10.5912   -2.5679   53.5368 H       1  ZINC000632456679    0.1300
     36 H36       -13.0954   -1.5169   58.0694 H       1  ZINC000632456679    0.4200
     37 H37       -12.0937   -1.6454   60.6418 H       1  ZINC000632456679    0.1900
     38 H38        -7.9381   -1.2868   62.5100 H       1  ZINC000632456679    0.1500
     39 H39        -7.7013   -0.1291   64.6668 H       1  ZINC000632456679    0.1500
     40 H40        -9.4020    1.4928   65.3922 H       1  ZINC000632456679    0.1500
@<TRIPOS>BOND
     1     1     2    1
     2     1    25    1
     3     1    26    1
     4     1    27    1
     5     2     3    1
     6     2     4    1
     7     2     9    1
     8     3    28    1
     9     3    29    1
    10     3    30    1
    11     4     5    1
    12     4    31    1
    13     4    32    1
    14     5     6    1
    15     5     7    2
    16     5     8    2
    17     6    33    1
    18     6    34    1
    19     6    35    1
    20     9    10   am
    21     9    36    1
    22    10    11    2
    23    10    12    1
    24    12    24    1
    25    12    13    2
    26    13    14    1
    27    13    37    1
    28    14    15    1
    29    14    23    2
    30    15    21   ar
    31    15    16   ar
    32    16    17   ar
    33    16    38    1
    34    17    18   ar
    35    17    39    1
    36    18    19   ar
    37    18    40    1
    38    19    20    1
    39    19    21   ar
    40    21    22    1
    41    23    24    1
@<TRIPOS>SUBSTRUCTURE
     1 ZINC000632456679        1 TEMP              0 ****  ****    0 ROOT


##########                                Name:    ZINC000518234532
##########                DOCK_Rotatable_Bonds:                   5
##########                         Heavy_Atoms:                  25
##########                    Molecular_Weight:             408.267
##########                DOCK_Rotatable_Bonds:                   5
##########                       Formal_Charge:         -0.00999981
##########                     HBond_Acceptors:                   5
##########                        HBond_Donors:                   1
##########                         Heavy_Atoms:                  25
##########                          Grid_Score:          -27.085497
##########                     Grid_vdw_energy:          -27.501814
##########                      Grid_es_energy:            0.416318
##########           Internal_energy_repulsive:           14.562725

@<TRIPOS>MOLECULE
ZINC000518234532
 44 46 1 0 0
SMALL
USER_CHARGES


@<TRIPOS>ATOM
      1 C1         -9.4986    1.6493   60.8131 C.3     1  ZINC000518234532   -0.1600
      2 C2         -9.5887    0.4130   61.7100 C.3     1  ZINC000518234532    0.1800
      3 H3         -8.7084   -0.2115   61.5575 H       1  ZINC000518234532    0.1100
      4 N4         -9.6539    0.8309   63.1126 N.am    1  ZINC000518234532   -0.7300
      5 C5         -8.9020    0.2032   64.0384 C.2     1  ZINC000518234532    0.5200
      6 O6         -8.1703   -0.7066   63.7100 O.2     1  ZINC000518234532   -0.5200
      7 C7         -8.9704    0.6319   65.4815 C.3     1  ZINC000518234532   -0.0700
      8 H8         -9.1089   -0.2444   66.1148 H       1  ZINC000518234532    0.1100
      9 C9        -10.1468    1.5910   65.6734 C.3     1  ZINC000518234532   -0.1400
     10 C10        -7.6883    1.3276   65.8602 C.ar    1  ZINC000518234532   -0.1000
     11 C11        -7.3069    2.4807   65.2012 C.ar    1  ZINC000518234532   -0.0600
     12 C12        -6.1306    3.1191   65.5484 C.ar    1  ZINC000518234532   -0.1300
     13 C13        -5.3346    2.6046   66.5546 C.ar    1  ZINC000518234532   -0.0900
     14 C14        -5.7139    1.4510   67.2148 C.ar    1  ZINC000518234532   -0.1600
     15 C15        -6.8947    0.8146   66.8725 C.ar    1  ZINC000518234532    0.1000
     16 F16        -7.2664   -0.3129   67.5172 F       1  ZINC000518234532   -0.1400
     17 C17       -10.8275   -0.3712   61.3615 C.ar    1  ZINC000518234532   -0.0600
     18 C18       -12.0517    0.0069   61.8791 C.ar    1  ZINC000518234532   -0.1100
     19 C19       -13.1938   -0.7124   61.5594 C.ar    1  ZINC000518234532    0.0800
     20 C20       -13.1041   -1.8129   60.7156 C.ar    1  ZINC000518234532    0.0600
     21 C21       -11.8726   -2.1885   60.2000 C.ar    1  ZINC000518234532   -0.0800
     22 C22       -10.7383   -1.4650   60.5193 C.ar    1  ZINC000518234532   -0.0800
     23 Br23       -9.0608   -1.9790   59.8138 Br      1  ZINC000518234532   -0.0300
     24 O24       -14.2136   -2.5278   60.3830 O.3     1  ZINC000518234532   -0.3000
     25 C25       -15.3672   -2.3485   61.2119 C.3     1  ZINC000518234532    0.0200
     26 C26       -15.5651   -0.8440   61.4413 C.3     1  ZINC000518234532    0.0200
     27 O27       -14.3918   -0.3299   62.0806 O.3     1  ZINC000518234532   -0.3000
     28 H28        -8.6026    2.2165   61.0652 H       1  ZINC000518234532    0.0700
     29 H29        -9.4502    1.3383   59.7696 H       1  ZINC000518234532    0.0700
     30 H30       -10.3789    2.2738   60.9656 H       1  ZINC000518234532    0.0600
     31 H31       -10.2382    1.5594   63.3750 H       1  ZINC000518234532    0.4000
     32 H32       -11.0743    1.0879   65.3996 H       1  ZINC000518234532    0.0700
     33 H33       -10.1963    1.9012   66.7172 H       1  ZINC000518234532    0.0700
     34 H34       -10.0083    2.4674   65.0402 H       1  ZINC000518234532    0.0700
     35 H35        -7.9276    2.8832   64.4143 H       1  ZINC000518234532    0.1300
     36 H36        -5.8333    4.0202   65.0328 H       1  ZINC000518234532    0.1300
     37 H37        -4.4159    3.1039   66.8246 H       1  ZINC000518234532    0.1300
     38 H38        -5.0915    1.0488   68.0005 H       1  ZINC000518234532    0.1400
     39 H39       -12.1194    0.8634   62.5335 H       1  ZINC000518234532    0.1400
     40 H40       -11.7999   -3.0447   59.5458 H       1  ZINC000518234532    0.1500
     41 H41       -16.2445   -2.7632   60.7154 H       1  ZINC000518234532    0.1300
     42 H42       -15.2142   -2.8492   62.1679 H       1  ZINC000518234532    0.0800
     43 H43       -15.7120   -0.3425   60.4847 H       1  ZINC000518234532    0.0800
     44 H44       -16.4332   -0.6807   62.0797 H       1  ZINC000518234532    0.1300
@<TRIPOS>BOND
     1     1     2    1
     2     1    28    1
     3     1    29    1
     4     1    30    1
     5     2     3    1
     6     2     4    1
     7     2    17    1
     8     4     5   am
     9     4    31    1
    10     5     6    2
    11     5     7    1
    12     7     8    1
    13     7     9    1
    14     7    10    1
    15     9    32    1
    16     9    33    1
    17     9    34    1
    18    10    15   ar
    19    10    11   ar
    20    11    12   ar
    21    11    35    1
    22    12    13   ar
    23    12    36    1
    24    13    14   ar
    25    13    37    1
    26    14    15   ar
    27    14    38    1
    28    15    16    1
    29    17    22   ar
    30    17    18   ar
    31    18    19   ar
    32    18    39    1
    33    19    27    1
    34    19    20   ar
    35    20    21   ar
    36    20    24    1
    37    21    22   ar
    38    21    40    1
    39    22    23    1
    40    24    25    1
    41    25    26    1
    42    25    41    1
    43    25    42    1
    44    26    27    1
    45    26    43    1
    46    26    44    1
@<TRIPOS>SUBSTRUCTURE
     1 ZINC000518234532        1 TEMP              0 ****  ****    0 ROOT


##########                                Name:    ZINC000951315041
##########                DOCK_Rotatable_Bonds:                   5
##########                         Heavy_Atoms:                  25
##########                    Molecular_Weight:             340.382
##########                DOCK_Rotatable_Bonds:                   5
##########                       Formal_Charge:          0.00999974
##########                     HBond_Acceptors:                   7
##########                        HBond_Donors:                   1
##########                         Heavy_Atoms:                  25
##########                          Grid_Score:          -27.079666
##########                     Grid_vdw_energy:          -25.710728
##########                      Grid_es_energy:           -1.368939
##########           Internal_energy_repulsive:           10.052012

@<TRIPOS>MOLECULE
ZINC000951315041
 45 47 1 0 0
SMALL
USER_CHARGES


@<TRIPOS>ATOM
      1 C1        -14.6830   -0.9542   55.4615 C.3     1  ZINC000951315041    0.0500
      2 N2        -14.0149   -0.9147   54.1584 N.am    1  ZINC000951315041   -0.4900
      3 C3        -12.6739   -0.8108   54.1045 C.2     1  ZINC000951315041    0.1700
      4 C4        -12.0237   -0.7714   52.8880 C.2     1  ZINC000951315041   -0.2400
      5 C5        -10.5545   -0.6575   52.8341 C.2     1  ZINC000951315041    0.5800
      6 O6         -9.8746   -1.6470   52.6404 O.2     1  ZINC000951315041   -0.5200
      7 N7         -9.9651    0.5432   52.9997 N.am    1  ZINC000951315041   -0.6000
      8 C8        -10.7731    1.7477   53.2346 C.3     1  ZINC000951315041    0.1100
      9 C9        -10.3829    2.8118   52.2040 C.3     1  ZINC000951315041   -0.1300
     10 C10        -8.8718    3.0465   52.2662 C.3     1  ZINC000951315041   -0.1300
     11 C11        -8.1377    1.7486   51.9218 C.3     1  ZINC000951315041    0.1300
     12 H12        -8.4331    1.4166   50.9266 H       1  ZINC000951315041    0.1000
     13 N13        -6.6918    1.9825   51.9501 N.am    1  ZINC000951315041   -0.7200
     14 C14        -6.0822    2.5624   50.8972 C.2     1  ZINC000951315041    0.5700
     15 O15        -6.7320    2.8901   49.9236 O.2     1  ZINC000951315041   -0.5200
     16 C16        -4.6233    2.8001   50.9264 C.ar    1  ZINC000951315041   -0.1900
     17 C17        -3.9033    2.6611   52.1188 C.ar    1  ZINC000951315041   -0.0100
     18 C18        -2.5394    2.8945   52.0924 C.ar    1  ZINC000951315041   -0.1800
     19 C19        -1.9371    3.2540   50.9004 C.ar    1  ZINC000951315041    0.1300
     20 N20        -2.6414    3.3779   49.7915 N.ar    1  ZINC000951315041   -0.4900
     21 C21        -3.9398    3.1610   49.7645 C.ar    1  ZINC000951315041    0.1400
     22 C22        -8.5022    0.6715   52.9549 C.3     1  ZINC000951315041    0.1000
     23 C23       -12.7781   -0.8417   51.6918 C.2     1  ZINC000951315041    0.0100
     24 C24       -14.1315   -0.9468   51.7711 C.2     1  ZINC000951315041   -0.2300
     25 C25       -14.7507   -0.9883   53.0344 C.2     1  ZINC000951315041    0.5100
     26 O26       -15.9642   -1.0830   53.1108 O.2     1  ZINC000951315041   -0.5400
     27 H27       -15.7594   -1.0444   55.3152 H       1  ZINC000951315041    0.1100
     28 H28       -14.3206   -1.8109   56.0298 H       1  ZINC000951315041    0.0800
     29 H29       -14.4663   -0.0370   56.0089 H       1  ZINC000951315041    0.0800
     30 H30       -12.1031   -0.7575   55.0197 H       1  ZINC000951315041    0.1700
     31 H31       -11.8303    1.5052   53.1271 H       1  ZINC000951315041    0.1000
     32 H32       -10.5830    2.1250   54.2394 H       1  ZINC000951315041    0.0700
     33 H33       -10.6572    2.4698   51.2062 H       1  ZINC000951315041    0.0700
     34 H34       -10.9050    3.7424   52.4264 H       1  ZINC000951315041    0.0900
     35 H35        -8.5950    3.8210   51.5509 H       1  ZINC000951315041    0.0800
     36 H36        -8.5947    3.3649   53.2712 H       1  ZINC000951315041    0.0700
     37 H37        -6.1730    1.7199   52.7265 H       1  ZINC000951315041    0.4000
     38 H38        -4.3995    2.3793   53.0358 H       1  ZINC000951315041    0.1500
     39 H39        -1.9517    2.7971   52.9933 H       1  ZINC000951315041    0.1500
     40 H40        -0.8729    3.4367   50.8770 H       1  ZINC000951315041    0.1600
     41 H41        -4.4820    3.2723   48.8370 H       1  ZINC000951315041    0.1600
     42 H42        -8.1253    0.9629   53.9352 H       1  ZINC000951315041    0.0700
     43 H43        -8.0619   -0.2811   52.6603 H       1  ZINC000951315041    0.0900
     44 H44       -12.2860   -0.8119   50.7309 H       1  ZINC000951315041    0.1400
     45 H45       -14.7266   -1.0013   50.8714 H       1  ZINC000951315041    0.1600
@<TRIPOS>BOND
     1     1     2    1
     2     1    27    1
     3     1    28    1
     4     1    29    1
     5     2    25   am
     6     2     3    1
     7     3     4    2
     8     3    30    1
     9     4     5    1
    10     4    23    1
    11     5     6    2
    12     5     7   am
    13     7    22    1
    14     7     8    1
    15     8     9    1
    16     8    31    1
    17     8    32    1
    18     9    10    1
    19     9    33    1
    20     9    34    1
    21    10    11    1
    22    10    35    1
    23    10    36    1
    24    11    12    1
    25    11    13    1
    26    11    22    1
    27    13    14   am
    28    13    37    1
    29    14    15    2
    30    14    16    1
    31    16    21   ar
    32    16    17   ar
    33    17    18   ar
    34    17    38    1
    35    18    19   ar
    36    18    39    1
    37    19    20   ar
    38    19    40    1
    39    20    21   ar
    40    21    41    1
    41    22    42    1
    42    22    43    1
    43    23    24    2
    44    23    44    1
    45    24    25    1
    46    24    45    1
    47    25    26    2
@<TRIPOS>SUBSTRUCTURE
     1 ZINC000951315041        1 TEMP              0 ****  ****    0 ROOT


##########                                Name:    ZINC000435292384
##########                DOCK_Rotatable_Bonds:                   6
##########                         Heavy_Atoms:                  22
##########                    Molecular_Weight:             326.503
##########                DOCK_Rotatable_Bonds:                   6
##########                       Formal_Charge:         -0.00999993
##########                     HBond_Acceptors:                   5
##########                        HBond_Donors:                   0
##########                         Heavy_Atoms:                  22
##########                          Grid_Score:          -27.067640
##########                     Grid_vdw_energy:          -26.941347
##########                      Grid_es_energy:           -0.126293
##########           Internal_energy_repulsive:           23.195925

@<TRIPOS>MOLECULE
ZINC000435292384
 52 53 1 0 0
SMALL
USER_CHARGES


@<TRIPOS>ATOM
      1 C1         -8.3690    0.0042   63.4467 C.3     1  ZINC000435292384   -0.1500
      2 C2         -9.7936    0.2982   62.9725 C.3     1  ZINC000435292384   -0.1200
      3 C3         -9.7444    1.2046   61.7409 C.3     1  ZINC000435292384   -0.1400
      4 C4         -9.2426    0.4035   60.5378 C.3     1  ZINC000435292384    0.1600
      5 H5         -8.2732   -0.0360   60.7728 H       1  ZINC000435292384    0.0900
      6 C6         -9.1024    1.3316   59.3296 C.3     1  ZINC000435292384   -0.1700
      7 N7        -10.1993   -0.6616   60.2269 N.am    1  ZINC000435292384   -0.6100
      8 C8        -11.6573   -0.4940   60.2375 C.3     1  ZINC000435292384    0.1200
      9 C9        -12.2162   -1.6980   59.4472 C.3     1  ZINC000435292384   -0.1300
     10 H10       -12.3463   -1.4470   58.3945 H       1  ZINC000435292384    0.1100
     11 C11       -13.5108   -2.1828   60.0472 C.2     1  ZINC000435292384    0.5200
     12 O12       -13.7464   -1.9864   61.2205 O.2     1  ZINC000435292384   -0.5200
     13 N13       -14.4066   -2.8349   59.2799 N.am    1  ZINC000435292384   -0.6000
     14 C14       -15.6648   -3.2966   59.8984 C.3     1  ZINC000435292384    0.1000
     15 C15       -16.8831   -3.0474   58.9908 C.3     1  ZINC000435292384   -0.1300
     16 C16       -16.7654   -1.6992   58.3236 C.3     1  ZINC000435292384   -0.1100
     17 C17       -16.0699   -1.8613   56.9754 C.3     1  ZINC000435292384   -0.1200
     18 C18       -14.6007   -1.8528   57.0465 C.3     1  ZINC000435292384   -0.0700
     19 H19       -14.2674   -0.9237   57.5090 H       1  ZINC000435292384    0.0900
     20 S20       -13.9178   -1.9674   55.3698 S.3     1  ZINC000435292384   -0.2500
     21 C21       -12.6656   -0.6552   55.3487 C.3     1  ZINC000435292384   -0.1200
     22 C22       -14.0981   -3.0481   57.8836 C.3     1  ZINC000435292384    0.1400
     23 C23       -11.0934   -2.7450   59.6317 C.3     1  ZINC000435292384   -0.1400
     24 C24        -9.8543   -1.9163   59.8899 C.2     1  ZINC000435292384    0.5200
     25 O25        -8.7157   -2.3263   59.8112 O.2     1  ZINC000435292384   -0.5200
     26 H26        -8.4041   -0.6415   64.3242 H       1  ZINC000435292384    0.0500
     27 H27        -7.8167   -0.4946   62.6504 H       1  ZINC000435292384    0.0500
     28 H28        -7.8713    0.9394   63.7035 H       1  ZINC000435292384    0.0500
     29 H29       -10.2914   -0.6369   62.7158 H       1  ZINC000435292384    0.0600
     30 H30       -10.3460    0.7971   63.7689 H       1  ZINC000435292384    0.0600
     31 H31       -10.7432    1.5875   61.5313 H       1  ZINC000435292384    0.0800
     32 H32        -9.0680    2.0381   61.9300 H       1  ZINC000435292384    0.0800
     33 H33       -10.0718    1.7711   59.0947 H       1  ZINC000435292384    0.0700
     34 H34        -8.3907    2.1242   59.5609 H       1  ZINC000435292384    0.0700
     35 H35        -8.7449    0.7610   58.4725 H       1  ZINC000435292384    0.0600
     36 H36       -12.0312   -0.5085   61.2613 H       1  ZINC000435292384    0.0900
     37 H37       -11.9332    0.4397   59.7476 H       1  ZINC000435292384    0.0800
     38 H38       -15.5879   -4.3646   60.1022 H       1  ZINC000435292384    0.0700
     39 H39       -15.8111   -2.7678   60.8402 H       1  ZINC000435292384    0.0900
     40 H40       -16.9311   -3.8251   58.2285 H       1  ZINC000435292384    0.0700
     41 H41       -17.7926   -3.0755   59.5909 H       1  ZINC000435292384    0.0800
     42 H42       -17.7603   -1.2805   58.1717 H       1  ZINC000435292384    0.0700
     43 H43       -16.1815   -1.0303   58.9559 H       1  ZINC000435292384    0.0600
     44 H44       -16.3894   -2.8047   56.5323 H       1  ZINC000435292384    0.0800
     45 H45       -16.3895   -1.0501   56.3213 H       1  ZINC000435292384    0.0600
     46 H46       -13.1427    0.3056   55.5419 H       1  ZINC000435292384    0.0800
     47 H47       -11.9199   -0.8520   56.1191 H       1  ZINC000435292384    0.0800
     48 H48       -12.1815   -0.6306   54.3723 H       1  ZINC000435292384    0.1000
     49 H49       -13.0193   -3.1472   57.7636 H       1  ZINC000435292384    0.0900
     50 H50       -14.5862   -3.9610   57.5423 H       1  ZINC000435292384    0.0900
     51 H51       -11.3096   -3.3902   60.4833 H       1  ZINC000435292384    0.1100
     52 H52       -10.9709   -3.3370   58.7247 H       1  ZINC000435292384    0.1100
@<TRIPOS>BOND
     1     1     2    1
     2     1    26    1
     3     1    27    1
     4     1    28    1
     5     2     3    1
     6     2    29    1
     7     2    30    1
     8     3     4    1
     9     3    31    1
    10     3    32    1
    11     4     5    1
    12     4     6    1
    13     4     7    1
    14     6    33    1
    15     6    34    1
    16     6    35    1
    17     7    24   am
    18     7     8    1
    19     8     9    1
    20     8    36    1
    21     8    37    1
    22     9    10    1
    23     9    11    1
    24     9    23    1
    25    11    12    2
    26    11    13   am
    27    13    22    1
    28    13    14    1
    29    14    15    1
    30    14    38    1
    31    14    39    1
    32    15    16    1
    33    15    40    1
    34    15    41    1
    35    16    17    1
    36    16    42    1
    37    16    43    1
    38    17    18    1
    39    17    44    1
    40    17    45    1
    41    18    19    1
    42    18    20    1
    43    18    22    1
    44    20    21    1
    45    21    46    1
    46    21    47    1
    47    21    48    1
    48    22    49    1
    49    22    50    1
    50    23    24    1
    51    23    51    1
    52    23    52    1
    53    24    25    2
@<TRIPOS>SUBSTRUCTURE
     1 ZINC000435292384        1 TEMP              0 ****  ****    0 ROOT


##########                                Name:    ZINC000437443367
##########                DOCK_Rotatable_Bonds:                   8
##########                         Heavy_Atoms:                  24
##########                    Molecular_Weight:             334.434
##########                DOCK_Rotatable_Bonds:                   8
##########                       Formal_Charge:          -0.0500003
##########                     HBond_Acceptors:                   5
##########                        HBond_Donors:                   1
##########                         Heavy_Atoms:                  24
##########                          Grid_Score:          -27.059187
##########                     Grid_vdw_energy:          -27.203630
##########                      Grid_es_energy:            0.144444
##########           Internal_energy_repulsive:           32.842987

@<TRIPOS>MOLECULE
ZINC000437443367
 51 52 1 0 0
SMALL
USER_CHARGES


@<TRIPOS>ATOM
      1 C1          2.7636    1.3636   51.1887 C.3     1  ZINC000437443367   -0.1200
      2 C2          1.5964    2.1525   51.7237 C.ar    1  ZINC000437443367   -0.1000
      3 C3          0.3187    1.8845   51.2745 C.ar    1  ZINC000437443367   -0.1200
      4 C4         -0.7570    2.6123   51.7682 C.ar    1  ZINC000437443367    0.1400
      5 N5         -2.0518    2.3424   51.3152 N.am    1  ZINC000437443367   -0.6400
      6 C6         -2.6635    3.1991   50.4736 C.2     1  ZINC000437443367    0.5000
      7 O7         -2.0904    4.2049   50.1088 O.2     1  ZINC000437443367   -0.4800
      8 C8         -4.0468    2.9107   49.9896 C.2     1  ZINC000437443367    0.5100
      9 O9         -4.2185    2.4619   48.8752 O.2     1  ZINC000437443367   -0.5200
     10 N10        -5.1043    3.1488   50.7906 N.am    1  ZINC000437443367   -0.5700
     11 C11        -4.8969    3.6905   52.1359 C.3     1  ZINC000437443367    0.0900
     12 C12        -4.5266    5.1719   52.0377 C.3     1  ZINC000437443367   -0.1200
     13 C13        -4.2656    5.7263   53.4396 C.3     1  ZINC000437443367   -0.0900
     14 C14        -3.8940    7.2073   53.3413 C.3     1  ZINC000437443367   -0.1400
     15 C15        -5.5270    5.5724   54.2918 C.3     1  ZINC000437443367   -0.1500
     16 C16        -6.4610    2.8660   50.3159 C.3     1  ZINC000437443367    0.1300
     17 C17        -6.9623    1.5342   50.9118 C.3     1  ZINC000437443367   -0.1300
     18 C18        -7.7780    1.9589   52.1581 C.3     1  ZINC000437443367   -0.1300
     19 C19        -8.4844    3.2517   51.6800 C.3     1  ZINC000437443367   -0.1200
     20 C20        -7.4288    3.9580   50.8044 C.3     1  ZINC000437443367   -0.1400
     21 C21        -0.5441    3.6080   52.7128 C.ar    1  ZINC000437443367   -0.1100
     22 C22         0.7358    3.8726   53.1593 C.ar    1  ZINC000437443367   -0.1300
     23 C23         1.8057    3.1422   52.6700 C.ar    1  ZINC000437443367    0.0800
     24 F24         3.0568    3.4027   53.1081 F       1  ZINC000437443367   -0.1400
     25 H25         2.9216    0.4820   51.8099 H       1  ZINC000437443367    0.0800
     26 H26         2.5538    1.0536   50.1650 H       1  ZINC000437443367    0.0700
     27 H27         3.6594    1.9842   51.2042 H       1  ZINC000437443367    0.0700
     28 H28         0.1554    1.1101   50.5398 H       1  ZINC000437443367    0.1400
     29 H29        -2.5098    1.5385   51.6065 H       1  ZINC000437443367    0.4200
     30 H30        -5.8132    3.5828   52.7162 H       1  ZINC000437443367    0.0900
     31 H31        -4.0900    3.1461   52.6264 H       1  ZINC000437443367    0.1000
     32 H32        -3.6283    5.2823   51.4303 H       1  ZINC000437443367    0.0700
     33 H33        -5.3470    5.7216   51.5764 H       1  ZINC000437443367    0.0600
     34 H34        -3.4458    5.1759   53.9012 H       1  ZINC000437443367    0.0600
     35 H35        -4.7138    7.7576   52.8797 H       1  ZINC000437443367    0.0600
     36 H36        -3.7081    7.6022   54.3401 H       1  ZINC000437443367    0.0400
     37 H37        -2.9954    7.3168   52.7342 H       1  ZINC000437443367    0.0600
     38 H38        -5.7917    4.5174   54.3618 H       1  ZINC000437443367    0.0500
     39 H39        -5.3411    5.9674   55.2906 H       1  ZINC000437443367    0.0500
     40 H40        -6.3467    6.1228   53.8302 H       1  ZINC000437443367    0.0500
     41 H41        -6.4726    2.8165   49.2271 H       1  ZINC000437443367    0.1000
     42 H42        -7.6001    1.0130   50.1979 H       1  ZINC000437443367    0.0800
     43 H43        -6.1207    0.9057   51.2027 H       1  ZINC000437443367    0.0700
     44 H44        -8.5088    1.1940   52.4205 H       1  ZINC000437443367    0.0700
     45 H45        -7.1172    2.1682   52.9993 H       1  ZINC000437443367    0.0700
     46 H46        -9.3680    3.0080   51.0901 H       1  ZINC000437443367    0.0700
     47 H47        -8.7536    3.8767   52.5316 H       1  ZINC000437443367    0.0700
     48 H48        -6.8890    4.6985   51.3946 H       1  ZINC000437443367    0.0800
     49 H49        -7.9107    4.4380   49.9526 H       1  ZINC000437443367    0.0700
     50 H50        -1.3787    4.1752   53.0977 H       1  ZINC000437443367    0.1600
     51 H51         0.9019    4.6468   53.8938 H       1  ZINC000437443367    0.1400
@<TRIPOS>BOND
     1     1     2    1
     2     1    25    1
     3     1    26    1
     4     1    27    1
     5     2    23   ar
     6     2     3   ar
     7     3     4   ar
     8     3    28    1
     9     4     5    1
    10     4    21   ar
    11     5     6   am
    12     5    29    1
    13     6     7    2
    14     6     8    1
    15     8     9    2
    16     8    10   am
    17    10    11    1
    18    10    16    1
    19    11    12    1
    20    11    30    1
    21    11    31    1
    22    12    13    1
    23    12    32    1
    24    12    33    1
    25    13    14    1
    26    13    15    1
    27    13    34    1
    28    14    35    1
    29    14    36    1
    30    14    37    1
    31    15    38    1
    32    15    39    1
    33    15    40    1
    34    16    20    1
    35    16    17    1
    36    16    41    1
    37    17    18    1
    38    17    42    1
    39    17    43    1
    40    18    19    1
    41    18    44    1
    42    18    45    1
    43    19    20    1
    44    19    46    1
    45    19    47    1
    46    20    48    1
    47    20    49    1
    48    21    22   ar
    49    21    50    1
    50    22    23   ar
    51    22    51    1
    52    23    24    1
@<TRIPOS>SUBSTRUCTURE
     1 ZINC000437443367        1 TEMP              0 ****  ****    0 ROOT


##########                                Name:    ZINC000965273005
##########                DOCK_Rotatable_Bonds:                   7
##########                         Heavy_Atoms:                  27
##########                    Molecular_Weight:             368.436
##########                DOCK_Rotatable_Bonds:                   7
##########                       Formal_Charge:           0.0100003
##########                     HBond_Acceptors:                   7
##########                        HBond_Donors:                   2
##########                         Heavy_Atoms:                  27
##########                          Grid_Score:          -27.046976
##########                     Grid_vdw_energy:          -26.276960
##########                      Grid_es_energy:           -0.770016
##########           Internal_energy_repulsive:           23.350637

@<TRIPOS>MOLECULE
ZINC000965273005
 51 54 1 0 0
SMALL
USER_CHARGES


@<TRIPOS>ATOM
      1 C1        -14.4617   -4.4101   57.6966 C.3     1  ZINC000965273005   -0.1200
      2 C2        -14.2423   -3.2974   56.7044 C.ar    1  ZINC000965273005   -0.0300
      3 C3        -15.2869   -2.8551   55.9195 C.ar    1  ZINC000965273005   -0.1200
      4 C4        -15.0871   -1.8334   55.0079 C.ar    1  ZINC000965273005   -0.0900
      5 C5        -13.8403   -1.2486   54.8774 C.ar    1  ZINC000965273005   -0.1300
      6 C6        -12.7869   -1.6815   55.6564 C.ar    1  ZINC000965273005   -0.0900
      7 C7        -12.9829   -2.7079   56.5814 C.ar    1  ZINC000965273005   -0.1300
      8 C8        -11.8587   -3.1769   57.4194 C.2     1  ZINC000965273005    0.5800
      9 O9        -11.5770   -4.3588   57.4522 O.2     1  ZINC000965273005   -0.5200
     10 N10       -11.1463   -2.2938   58.1468 N.am    1  ZINC000965273005   -0.6100
     11 C11       -11.3825   -0.8397   58.2047 C.3     1  ZINC000965273005    0.0900
     12 C12       -10.7826   -0.3943   59.5616 C.3     1  ZINC000965273005    0.1500
     13 H13       -10.5008    0.6584   59.5375 H       1  ZINC000965273005    0.1200
     14 N14       -11.7143   -0.6605   60.6605 N.am    1  ZINC000965273005   -0.7100
     15 C15       -12.3331    0.3628   61.2821 C.2     1  ZINC000965273005    0.6000
     16 O16       -12.1170    1.5072   60.9319 O.2     1  ZINC000965273005   -0.5400
     17 C17       -13.2720    0.0948   62.3867 C.2     1  ZINC000965273005   -0.2800
     18 C18       -13.3660    0.7977   63.5710 C.2     1  ZINC000965273005    0.1000
     19 N19       -14.3427    0.2317   64.2979 N.pl3   1  ZINC000965273005   -0.3600
     20 C20       -14.7793    0.6629   65.6281 C.3     1  ZINC000965273005    0.1000
     21 N21       -14.8737   -0.8390   63.5702 N.2     1  ZINC000965273005   -0.3000
     22 C22       -14.2481   -0.9259   62.4288 C.2     1  ZINC000965273005    0.1700
     23 C23       -14.5129   -1.9430   61.3489 C.3     1  ZINC000965273005   -0.0800
     24 C24       -15.9235   -1.9957   60.7586 C.3     1  ZINC000965273005   -0.1700
     25 C25       -14.7703   -1.4204   59.9341 C.3     1  ZINC000965273005   -0.1600
     26 C26        -9.5292   -1.3035   59.6615 C.3     1  ZINC000965273005    0.0900
     27 H27        -8.6977   -0.8769   59.1005 H       1  ZINC000965273005    0.0900
     28 O28        -9.1622   -1.5103   61.0270 O.3     1  ZINC000965273005   -0.5500
     29 C29       -10.0090   -2.6217   59.0188 C.3     1  ZINC000965273005    0.0600
     30 H30       -14.6732   -3.9855   58.6780 H       1  ZINC000965273005    0.0800
     31 H31       -15.3050   -5.0218   57.3760 H       1  ZINC000965273005    0.0700
     32 H32       -13.5656   -5.0280   57.7536 H       1  ZINC000965273005    0.0700
     33 H33       -16.2628   -3.3075   56.0166 H       1  ZINC000965273005    0.1300
     34 H34       -15.9082   -1.4913   54.3954 H       1  ZINC000965273005    0.1300
     35 H35       -13.6910   -0.4515   54.1641 H       1  ZINC000965273005    0.1300
     36 H36       -11.8139   -1.2243   55.5533 H       1  ZINC000965273005    0.1300
     37 H37       -10.8722   -0.3393   57.3817 H       1  ZINC000965273005    0.0900
     38 H38       -12.4513   -0.6275   58.1746 H       1  ZINC000965273005    0.0900
     39 H39       -11.8857   -1.5732   60.9406 H       1  ZINC000965273005    0.4000
     40 H40       -12.7640    1.6465   63.8601 H       1  ZINC000965273005    0.1800
     41 H41       -15.5740    1.4021   65.5279 H       1  ZINC000965273005    0.0800
     42 H42       -15.1511   -0.1972   66.1850 H       1  ZINC000965273005    0.1000
     43 H43       -13.9374    1.1045   66.1613 H       1  ZINC000965273005    0.0900
     44 H44       -13.9726   -2.8845   61.4470 H       1  ZINC000965273005    0.1400
     45 H45       -16.3116   -2.9721   60.4685 H       1  ZINC000965273005    0.1000
     46 H46       -16.6600   -1.2946   61.1515 H       1  ZINC000965273005    0.1000
     47 H47       -14.7481   -0.3410   59.7845 H       1  ZINC000965273005    0.0900
     48 H48       -14.3997   -2.0183   59.1015 H       1  ZINC000965273005    0.1000
     49 H49        -8.5495   -0.8477   61.3742 H       1  ZINC000965273005    0.3900
     50 H50       -10.3203   -3.3208   59.7951 H       1  ZINC000965273005    0.0800
     51 H51        -9.2062   -3.0580   58.4243 H       1  ZINC000965273005    0.0800
@<TRIPOS>BOND
     1     1     2    1
     2     1    30    1
     3     1    31    1
     4     1    32    1
     5     2     7   ar
     6     2     3   ar
     7     3     4   ar
     8     3    33    1
     9     4     5   ar
    10     4    34    1
    11     5     6   ar
    12     5    35    1
    13     6     7   ar
    14     6    36    1
    15     7     8    1
    16     8     9    2
    17     8    10   am
    18    10    29    1
    19    10    11    1
    20    11    12    1
    21    11    37    1
    22    11    38    1
    23    12    13    1
    24    12    14    1
    25    12    26    1
    26    14    15   am
    27    14    39    1
    28    15    16    2
    29    15    17    1
    30    17    22    1
    31    17    18    2
    32    18    19    1
    33    18    40    1
    34    19    20    1
    35    19    21    1
    36    20    41    1
    37    20    42    1
    38    20    43    1
    39    21    22    2
    40    22    23    1
    41    23    25    1
    42    23    24    1
    43    23    44    1
    44    24    25    1
    45    24    45    1
    46    24    46    1
    47    25    47    1
    48    25    48    1
    49    26    27    1
    50    26    28    1
    51    26    29    1
    52    28    49    1
    53    29    50    1
    54    29    51    1
@<TRIPOS>SUBSTRUCTURE
     1 ZINC000965273005        1 TEMP              0 ****  ****    0 ROOT


##########                                Name:    ZINC000653668607
##########                DOCK_Rotatable_Bonds:                   5
##########                         Heavy_Atoms:                  28
##########                    Molecular_Weight:             379.459
##########                DOCK_Rotatable_Bonds:                   5
##########                       Formal_Charge:          0.00999918
##########                     HBond_Acceptors:                   6
##########                        HBond_Donors:                   2
##########                         Heavy_Atoms:                  28
##########                          Grid_Score:          -27.024570
##########                     Grid_vdw_energy:          -27.514874
##########                      Grid_es_energy:            0.490303
##########           Internal_energy_repulsive:            9.505022

@<TRIPOS>MOLECULE
ZINC000653668607
 53 56 1 0 0
SMALL
USER_CHARGES


@<TRIPOS>ATOM
      1 C1        -10.5960   -3.1840   59.0691 C.3     1  ZINC000653668607    0.0300
      2 O2        -11.5347   -2.1421   58.7947 O.3     1  ZINC000653668607   -0.3200
      3 C3        -11.1709   -0.8782   59.1368 C.ar    1  ZINC000653668607    0.1300
      4 C4        -10.9297   -0.5574   60.4647 C.ar    1  ZINC000653668607   -0.2000
      5 C5        -10.5584    0.7272   60.8008 C.ar    1  ZINC000653668607   -0.0800
      6 C6        -10.4234    1.7038   59.8222 C.ar    1  ZINC000653668607   -0.1000
      7 C7        -10.0004    3.0814   60.2613 C.3     1  ZINC000653668607   -0.0800
      8 C8        -10.3123    4.1104   59.1766 C.3     1  ZINC000653668607   -0.1200
      9 C9         -9.7316    3.6063   57.8501 C.3     1  ZINC000653668607   -0.1100
     10 C10       -10.5500    2.4004   57.3933 C.3     1  ZINC000653668607   -0.0600
     11 H11       -11.5465    2.7319   57.1018 H       1  ZINC000653668607    0.1000
     12 C12        -9.8730    1.7603   56.2089 C.2     1  ZINC000653668607    0.5200
     13 O13        -8.8139    1.1869   56.3525 O.2     1  ZINC000653668607   -0.5100
     14 N14       -10.4443    1.8249   54.9899 N.am    1  ZINC000653668607   -0.6700
     15 C15        -9.8158    1.2306   53.8902 C.ar    1  ZINC000653668607    0.1500
     16 C16       -10.2123   -0.0292   53.4599 C.ar    1  ZINC000653668607   -0.1100
     17 C17        -9.5920   -0.6168   52.3739 C.ar    1  ZINC000653668607   -0.0900
     18 C18        -8.5761    0.0460   51.7129 C.ar    1  ZINC000653668607   -0.1200
     19 C19        -8.1746    1.3061   52.1387 C.ar    1  ZINC000653668607    0.1700
     20 N20        -7.1450    1.9768   51.4689 N.am    1  ZINC000653668607   -0.5800
     21 C21        -7.3951    3.3118   50.9231 C.3     1  ZINC000653668607    0.1100
     22 C22        -6.0839    4.1048   50.9132 C.3     1  ZINC000653668607   -0.1500
     23 C23        -5.0358    3.3047   50.1324 C.3     1  ZINC000653668607    0.1100
     24 N24        -4.9137    1.9701   50.7212 N.am    1  ZINC000653668607   -0.7400
     25 C25        -5.9474    1.3855   51.3449 C.2     1  ZINC000653668607    0.7100
     26 O26        -5.7957    0.2713   51.8075 O.2     1  ZINC000653668607   -0.5800
     27 C27        -8.7995    1.9015   53.2247 C.ar    1  ZINC000653668607   -0.1300
     28 C28       -10.6679    1.3890   58.5035 C.ar    1  ZINC000653668607   -0.0300
     29 C29       -11.0338    0.0948   58.1612 C.ar    1  ZINC000653668607   -0.1500
     30 H30        -9.6693   -2.9897   58.5291 H       1  ZINC000653668607    0.0600
     31 H31       -10.3928   -3.2174   60.1394 H       1  ZINC000653668607    0.0600
     32 H32       -11.0101   -4.1399   58.7479 H       1  ZINC000653668607    0.1000
     33 H33       -11.0327   -1.3104   61.2319 H       1  ZINC000653668607    0.1300
     34 H34       -10.3708    0.9766   61.8348 H       1  ZINC000653668607    0.1300
     35 H35       -10.5344    3.3477   61.1734 H       1  ZINC000653668607    0.0800
     36 H36        -8.9285    3.0821   60.4597 H       1  ZINC000653668607    0.0800
     37 H37       -11.3917    4.2296   59.0831 H       1  ZINC000653668607    0.0700
     38 H38        -9.8581    5.0666   59.4363 H       1  ZINC000653668607    0.0800
     39 H39        -9.7905    4.3953   57.1003 H       1  ZINC000653668607    0.0700
     40 H40        -8.6919    3.3117   57.9928 H       1  ZINC000653668607    0.0800
     41 H41       -11.2914    2.2834   54.8751 H       1  ZINC000653668607    0.4100
     42 H42       -11.0059   -0.5500   53.9748 H       1  ZINC000653668607    0.1400
     43 H43        -9.9018   -1.5965   52.0414 H       1  ZINC000653668607    0.1300
     44 H44        -8.0932   -0.4158   50.8645 H       1  ZINC000653668607    0.1200
     45 H45        -7.7753    3.2238   49.9054 H       1  ZINC000653668607    0.0700
     46 H46        -8.1281    3.8275   51.5435 H       1  ZINC000653668607    0.0900
     47 H47        -6.2429    5.0689   50.4304 H       1  ZINC000653668607    0.1000
     48 H48        -5.7405    4.2570   51.9365 H       1  ZINC000653668607    0.0800
     49 H49        -5.3461    3.2166   49.0913 H       1  ZINC000653668607    0.0700
     50 H50        -4.0742    3.8154   50.1849 H       1  ZINC000653668607    0.0900
     51 H51        -4.0670    1.5005   50.6625 H       1  ZINC000653668607    0.4200
     52 H52        -8.4894    2.8810   53.5574 H       1  ZINC000653668607    0.1300
     53 H53       -11.2178   -0.1541   57.1265 H       1  ZINC000653668607    0.1200
@<TRIPOS>BOND
     1     1     2    1
     2     1    30    1
     3     1    31    1
     4     1    32    1
     5     2     3    1
     6     3    29   ar
     7     3     4   ar
     8     4     5   ar
     9     4    33    1
    10     5     6   ar
    11     5    34    1
    12     6    28   ar
    13     6     7    1
    14     7     8    1
    15     7    35    1
    16     7    36    1
    17     8     9    1
    18     8    37    1
    19     8    38    1
    20     9    10    1
    21     9    39    1
    22     9    40    1
    23    10    11    1
    24    10    12    1
    25    10    28    1
    26    12    13    2
    27    12    14   am
    28    14    15    1
    29    14    41    1
    30    15    27   ar
    31    15    16   ar
    32    16    17   ar
    33    16    42    1
    34    17    18   ar
    35    17    43    1
    36    18    19   ar
    37    18    44    1
    38    19    20    1
    39    19    27   ar
    40    20    25   am
    41    20    21    1
    42    21    22    1
    43    21    45    1
    44    21    46    1
    45    22    23    1
    46    22    47    1
    47    22    48    1
    48    23    24    1
    49    23    49    1
    50    23    50    1
    51    24    25   am
    52    24    51    1
    53    25    26    2
    54    27    52    1
    55    28    29   ar
    56    29    53    1
@<TRIPOS>SUBSTRUCTURE
     1 ZINC000653668607        1 TEMP              0 ****  ****    0 ROOT


##########                                Name:    ZINC000186105981
##########                DOCK_Rotatable_Bonds:                   6
##########                         Heavy_Atoms:                  26
##########                    Molecular_Weight:             396.873
##########                DOCK_Rotatable_Bonds:                   6
##########                       Formal_Charge:          -0.0400003
##########                     HBond_Acceptors:                   9
##########                        HBond_Donors:                   1
##########                         Heavy_Atoms:                  26
##########                          Grid_Score:          -26.879868
##########                     Grid_vdw_energy:          -25.366369
##########                      Grid_es_energy:           -1.513499
##########           Internal_energy_repulsive:           25.970053

@<TRIPOS>MOLECULE
ZINC000186105981
 44 46 1 0 0
SMALL
USER_CHARGES


@<TRIPOS>ATOM
      1 C1         -9.8264    4.2354   63.0121 C.3     1  ZINC000186105981   -0.1400
      2 C2        -10.6600    2.9598   62.8737 C.3     1  ZINC000186105981   -0.1100
      3 C3        -11.6392    3.1144   61.7084 C.3     1  ZINC000186105981   -0.1600
      4 C4         -9.7337    1.7717   62.6072 C.3     1  ZINC000186105981    0.1600
      5 H5         -8.9160    2.0867   61.9589 H       1  ZINC000186105981    0.1200
      6 C6        -10.5112    0.6693   61.9355 C.2     1  ZINC000186105981    0.4900
      7 O7        -11.4303    0.1336   62.5179 O.2     1  ZINC000186105981   -0.4300
      8 N8        -10.1853    0.2786   60.6874 N.am    1  ZINC000186105981   -0.6300
      9 C9        -10.9023   -0.7379   60.0679 C.2     1  ZINC000186105981    0.2400
     10 N10       -10.8483   -2.0053   60.3642 N.2     1  ZINC000186105981   -0.2600
     11 N11       -11.5708   -2.7949   59.6973 N.2     1  ZINC000186105981   -0.2000
     12 C12       -12.3195   -2.2852   58.7598 C.2     1  ZINC000186105981    0.0300
     13 C13       -13.2331   -3.0342   57.8716 C.ar    1  ZINC000186105981   -0.0500
     14 C14       -14.5064   -3.3969   58.3186 C.ar    1  ZINC000186105981    0.1300
     15 F15       -14.9069   -3.0639   59.5653 F       1  ZINC000186105981   -0.1200
     16 C16       -15.3551   -4.0968   57.4818 C.ar    1  ZINC000186105981   -0.1400
     17 C17       -14.9464   -4.4377   56.2053 C.ar    1  ZINC000186105981   -0.0600
     18 C18       -13.6868   -4.0820   55.7567 C.ar    1  ZINC000186105981   -0.1200
     19 C19       -12.8302   -3.3777   56.5791 C.ar    1  ZINC000186105981    0.0200
     20 Cl20      -11.2506   -2.9324   56.0131 Cl      1  ZINC000186105981   -0.0100
     21 S21       -12.0536   -0.5407   58.7452 S.3     1  ZINC000186105981    0.1200
     22 N22        -9.1898    1.2822   63.8764 N.am    1  ZINC000186105981   -0.6100
     23 C23        -9.0188    2.1082   65.0775 C.3     1  ZINC000186105981    0.1000
     24 C24        -8.8457    1.1094   66.2432 C.3     1  ZINC000186105981   -0.1300
     25 C25        -8.2904   -0.1349   65.5125 C.3     1  ZINC000186105981   -0.1600
     26 C26        -8.7888    0.0175   64.0924 C.2     1  ZINC000186105981    0.5200
     27 O27        -8.8158   -0.8702   63.2666 O.2     1  ZINC000186105981   -0.5000
     28 H28       -10.4864    5.0818   63.2020 H       1  ZINC000186105981    0.0600
     29 H29        -9.1288    4.1252   63.8423 H       1  ZINC000186105981    0.0600
     30 H30        -9.2703    4.4077   62.0906 H       1  ZINC000186105981    0.0600
     31 H31       -11.2161    2.7875   63.7952 H       1  ZINC000186105981    0.0900
     32 H32       -11.0830    3.1932   60.7743 H       1  ZINC000186105981    0.0600
     33 H33       -12.2960    2.2455   61.6679 H       1  ZINC000186105981    0.0600
     34 H34       -12.2364    4.0148   61.8525 H       1  ZINC000186105981    0.0700
     35 H35        -9.4502    0.7071   60.2216 H       1  ZINC000186105981    0.4200
     36 H36       -16.3394   -4.3783   57.8256 H       1  ZINC000186105981    0.1500
     37 H37       -15.6137   -4.9846   55.5557 H       1  ZINC000186105981    0.1500
     38 H38       -13.3745   -4.3521   54.7587 H       1  ZINC000186105981    0.1500
     39 H39        -8.1313    2.7337   64.9818 H       1  ZINC000186105981    0.0700
     40 H40        -9.9016    2.7268   65.2387 H       1  ZINC000186105981    0.0800
     41 H41        -8.1298    1.4840   66.9748 H       1  ZINC000186105981    0.0900
     42 H42        -9.8039    0.8899   66.7143 H       1  ZINC000186105981    0.0800
     43 H43        -7.2007   -0.1389   65.5401 H       1  ZINC000186105981    0.1100
     44 H44        -8.6875   -1.0475   65.9574 H       1  ZINC000186105981    0.1000
@<TRIPOS>BOND
     1     1     2    1
     2     1    28    1
     3     1    29    1
     4     1    30    1
     5     2     3    1
     6     2     4    1
     7     2    31    1
     8     3    32    1
     9     3    33    1
    10     3    34    1
    11     4     5    1
    12     4     6    1
    13     4    22    1
    14     6     7    2
    15     6     8   am
    16     8     9    1
    17     8    35    1
    18     9    21    1
    19     9    10    2
    20    10    11    1
    21    11    12    2
    22    12    13    1
    23    12    21    1
    24    13    19   ar
    25    13    14   ar
    26    14    15    1
    27    14    16   ar
    28    16    17   ar
    29    16    36    1
    30    17    18   ar
    31    17    37    1
    32    18    19   ar
    33    18    38    1
    34    19    20    1
    35    22    26   am
    36    22    23    1
    37    23    24    1
    38    23    39    1
    39    23    40    1
    40    24    25    1
    41    24    41    1
    42    24    42    1
    43    25    26    1
    44    25    43    1
    45    25    44    1
    46    26    27    2
@<TRIPOS>SUBSTRUCTURE
     1 ZINC000186105981        1 TEMP              0 ****  ****    0 ROOT


##########                                Name:    ZINC000817655807
##########                DOCK_Rotatable_Bonds:                   3
##########                         Heavy_Atoms:                  24
##########                    Molecular_Weight:             352.774
##########                DOCK_Rotatable_Bonds:                   3
##########                       Formal_Charge:         3.35276e-07
##########                     HBond_Acceptors:                   8
##########                        HBond_Donors:                   0
##########                         Heavy_Atoms:                  24
##########                          Grid_Score:          -26.835091
##########                     Grid_vdw_energy:          -25.901480
##########                      Grid_es_energy:           -0.933612
##########           Internal_energy_repulsive:            2.668570

@<TRIPOS>MOLECULE
ZINC000817655807
 41 44 1 0 0
SMALL
USER_CHARGES


@<TRIPOS>ATOM
      1 C1         -8.6934    1.2668   53.6090 C.3     1  ZINC000817655807    0.1100
      2 N2         -9.6082    0.1420   53.3980 N.am    1  ZINC000817655807   -0.6400
      3 C3        -10.6874   -0.2691   54.3138 C.3     1  ZINC000817655807    0.1000
      4 C4        -11.3092   -1.4761   53.6055 C.3     1  ZINC000817655807    0.0500
      5 C5        -11.4887   -2.7297   54.4619 C.3     1  ZINC000817655807    0.1200
      6 N6        -12.8601   -2.2352   54.7042 N.am    1  ZINC000817655807   -0.6500
      7 C7        -13.7732   -2.4262   55.6769 C.2     1  ZINC000817655807    0.5500
      8 O8        -14.8519   -1.8756   55.6126 O.2     1  ZINC000817655807   -0.5100
      9 C9        -13.4538   -3.3240   56.8444 C.3     1  ZINC000817655807   -0.0900
     10 C10       -12.8340   -2.5089   57.9501 C.ar    1  ZINC000817655807   -0.0600
     11 C11       -13.6189   -1.6523   58.6988 C.ar    1  ZINC000817655807   -0.0900
     12 C12       -13.0529   -0.9010   59.7131 C.ar    1  ZINC000817655807   -0.0300
     13 Cl13      -14.0416    0.1743   60.6512 Cl      1  ZINC000817655807   -0.0500
     14 C14       -11.6957   -1.0064   59.9815 C.ar    1  ZINC000817655807    0.0600
     15 O15       -11.1510   -0.2550   60.9774 O.3     1  ZINC000817655807   -0.2900
     16 C16        -9.8659   -0.6615   61.4609 C.3     1  ZINC000817655807    0.0200
     17 C17        -8.9671   -0.9517   60.2513 C.3     1  ZINC000817655807    0.0200
     18 O18        -9.5756   -1.9933   59.4802 O.3     1  ZINC000817655807   -0.3000
     19 C19       -10.9080   -1.8708   59.2306 C.ar    1  ZINC000817655807    0.0600
     20 C20       -11.4827   -2.6236   58.2174 C.ar    1  ZINC000817655807   -0.0900
     21 C21       -12.8302   -1.4471   53.4544 C.3     1  ZINC000817655807    0.1100
     22 O22       -10.5455   -1.6337   52.3874 O.3     1  ZINC000817655807   -0.3000
     23 C23        -9.6044   -0.6789   52.3368 C.2     1  ZINC000817655807    0.6400
     24 O24        -8.8163   -0.5722   51.4180 O.2     1  ZINC000817655807   -0.5100
     25 H25        -8.0037    1.3369   52.7679 H       1  ZINC000817655807    0.0900
     26 H26        -9.2660    2.1911   53.6872 H       1  ZINC000817655807    0.0700
     27 H27        -8.1301    1.1094   54.5287 H       1  ZINC000817655807    0.0700
     28 H28       -10.2801   -0.5594   55.2824 H       1  ZINC000817655807    0.1000
     29 H29       -11.4203    0.5296   54.4275 H       1  ZINC000817655807    0.1000
     30 H30       -11.4499   -3.6596   53.8945 H       1  ZINC000817655807    0.1100
     31 H31       -10.8628   -2.7469   55.3540 H       1  ZINC000817655807    0.1000
     32 H32       -14.3705   -3.7895   57.2062 H       1  ZINC000817655807    0.1100
     33 H33       -12.7543   -4.0974   56.5272 H       1  ZINC000817655807    0.1100
     34 H34       -14.6755   -1.5693   58.4916 H       1  ZINC000817655807    0.1400
     35 H35        -9.4292    0.1374   62.0600 H       1  ZINC000817655807    0.1300
     36 H36        -9.9691   -1.5618   62.0666 H       1  ZINC000817655807    0.0800
     37 H37        -8.8688   -0.0531   59.6422 H       1  ZINC000817655807    0.0800
     38 H38        -7.9836   -1.2742   60.5931 H       1  ZINC000817655807    0.1300
     39 H39       -10.8728   -3.2974   57.6339 H       1  ZINC000817655807    0.1400
     40 H40       -13.2634   -0.4516   53.5512 H       1  ZINC000817655807    0.1000
     41 H41       -13.1965   -1.9898   52.5829 H       1  ZINC000817655807    0.1100
@<TRIPOS>BOND
     1     1     2    1
     2     1    25    1
     3     1    26    1
     4     1    27    1
     5     2    23   am
     6     2     3    1
     7     3     4    1
     8     3    28    1
     9     3    29    1
    10     4    21    1
    11     4     5    1
    12     4    22    1
    13     5     6    1
    14     5    30    1
    15     5    31    1
    16     6     7   am
    17     6    21    1
    18     7     8    2
    19     7     9    1
    20     9    10    1
    21     9    32    1
    22     9    33    1
    23    10    20   ar
    24    10    11   ar
    25    11    12   ar
    26    11    34    1
    27    12    13    1
    28    12    14   ar
    29    14    19   ar
    30    14    15    1
    31    15    16    1
    32    16    17    1
    33    16    35    1
    34    16    36    1
    35    17    18    1
    36    17    37    1
    37    17    38    1
    38    18    19    1
    39    19    20   ar
    40    20    39    1
    41    21    40    1
    42    21    41    1
    43    22    23    1
    44    23    24    2
@<TRIPOS>SUBSTRUCTURE
     1 ZINC000817655807        1 TEMP              0 ****  ****    0 ROOT


##########                                Name:    ZINC000854500114
##########                DOCK_Rotatable_Bonds:                   7
##########                         Heavy_Atoms:                  24
##########                    Molecular_Weight:             399.288
##########                DOCK_Rotatable_Bonds:                   7
##########                       Formal_Charge:          -0.0399992
##########                     HBond_Acceptors:                   7
##########                        HBond_Donors:                   2
##########                         Heavy_Atoms:                  24
##########                          Grid_Score:          -26.828930
##########                     Grid_vdw_energy:          -27.155270
##########                      Grid_es_energy:            0.326341
##########           Internal_energy_repulsive:           75.407852

@<TRIPOS>MOLECULE
ZINC000854500114
 47 49 1 0 0
SMALL
USER_CHARGES


@<TRIPOS>ATOM
      1 O1        -10.2905    4.4587   63.4279 O.2     1  ZINC000854500114   -0.5800
      2 C2        -10.1810    3.2798   63.1543 C.2     1  ZINC000854500114    0.6600
      3 N3         -9.9278    2.3828   64.1279 N.am    1  ZINC000854500114   -0.7100
      4 C4         -9.7789    2.8298   65.5151 C.3     1  ZINC000854500114    0.1600
      5 C5        -10.1906    1.7000   66.4814 C.3     1  ZINC000854500114   -0.1400
      6 C6         -8.8546    1.0064   66.8461 C.3     1  ZINC000854500114   -0.1300
      7 C7         -7.8684    2.1964   66.9477 C.3     1  ZINC000854500114   -0.1300
      8 C8         -8.3023    3.1454   65.8115 C.3     1  ZINC000854500114   -0.1300
      9 O9        -10.3178    2.8690   61.8795 O.3     1  ZINC000854500114   -0.3600
     10 C10       -11.2415    1.7758   61.6348 C.3     1  ZINC000854500114    0.1000
     11 C11       -10.4568    0.4731   61.4668 C.3     1  ZINC000854500114    0.1500
     12 H12        -9.9842    0.2065   62.4121 H       1  ZINC000854500114    0.0900
     13 C13        -9.3830    0.6557   60.3894 C.3     1  ZINC000854500114   -0.1300
     14 C14        -8.6954   -0.6862   60.1275 C.3     1  ZINC000854500114   -0.1200
     15 C15        -9.7244   -1.6976   59.6173 C.3     1  ZINC000854500114   -0.1400
     16 C16       -10.8020   -1.9069   60.6858 C.3     1  ZINC000854500114    0.0900
     17 N17       -11.3690   -0.6014   61.0519 N.am    1  ZINC000854500114   -0.6100
     18 C18       -12.6996   -0.3925   61.0030 C.2     1  ZINC000854500114    0.5900
     19 O19       -13.1564    0.6926   61.3085 O.2     1  ZINC000854500114   -0.4900
     20 C20       -13.5996   -1.4772   60.5799 C.2     1  ZINC000854500114   -0.0300
     21 C21       -13.8133   -1.9223   59.2870 C.2     1  ZINC000854500114   -0.1200
     22 C22       -14.7443   -2.9583   59.4015 C.2     1  ZINC000854500114    0.0200
     23 Br23      -15.4511   -3.9828   57.9779 Br      1  ZINC000854500114    0.0400
     24 N24       -15.0398   -3.0936   60.6696 N.2     1  ZINC000854500114   -0.2400
     25 N25       -14.3868   -2.2503   61.3852 N.pl3   1  ZINC000854500114   -0.3700
     26 H26        -9.8442    1.4413   63.9101 H       1  ZINC000854500114    0.4000
     27 H27       -10.3921    3.7138   65.6900 H       1  ZINC000854500114    0.0900
     28 H28       -10.6617    2.1135   67.3731 H       1  ZINC000854500114    0.0800
     29 H29       -10.8613    0.9987   65.9848 H       1  ZINC000854500114    0.0700
     30 H30        -8.9361    0.4896   67.8024 H       1  ZINC000854500114    0.0700
     31 H31        -8.5493    0.3177   66.0585 H       1  ZINC000854500114    0.0700
     32 H32        -7.9644    2.6901   67.9147 H       1  ZINC000854500114    0.0700
     33 H33        -6.8442    1.8574   66.7913 H       1  ZINC000854500114    0.0700
     34 H34        -7.6966    2.9661   64.9233 H       1  ZINC000854500114    0.0700
     35 H35        -8.1991    4.1824   66.1312 H       1  ZINC000854500114    0.0800
     36 H36       -11.9251    1.6819   62.4786 H       1  ZINC000854500114    0.1000
     37 H37       -11.8103    1.9769   60.7270 H       1  ZINC000854500114    0.0700
     38 H38        -9.8471    1.0122   59.4700 H       1  ZINC000854500114    0.0800
     39 H39        -8.6453    1.3821   60.7305 H       1  ZINC000854500114    0.0900
     40 H40        -7.9142   -0.5539   59.3791 H       1  ZINC000854500114    0.0800
     41 H41        -8.2527   -1.0541   61.0531 H       1  ZINC000854500114    0.0700
     42 H42       -10.1853   -1.3189   58.7051 H       1  ZINC000854500114    0.0700
     43 H43        -9.2297   -2.6462   59.4087 H       1  ZINC000854500114    0.0800
     44 H44       -11.5888   -2.5492   60.2903 H       1  ZINC000854500114    0.0800
     45 H45       -10.3578   -2.3700   61.5669 H       1  ZINC000854500114    0.0800
     46 H46       -13.3577   -1.5485   58.3820 H       1  ZINC000854500114    0.1700
     47 H47       -14.4481   -2.1703   62.3500 H       1  ZINC000854500114    0.4500
@<TRIPOS>BOND
     1     1     2    2
     2     2     3   am
     3     2     9    1
     4     3     4    1
     5     3    26    1
     6     4     8    1
     7     4     5    1
     8     4    27    1
     9     5     6    1
    10     5    28    1
    11     5    29    1
    12     6     7    1
    13     6    30    1
    14     6    31    1
    15     7     8    1
    16     7    32    1
    17     7    33    1
    18     8    34    1
    19     8    35    1
    20     9    10    1
    21    10    11    1
    22    10    36    1
    23    10    37    1
    24    11    12    1
    25    11    17    1
    26    11    13    1
    27    13    14    1
    28    13    38    1
    29    13    39    1
    30    14    15    1
    31    14    40    1
    32    14    41    1
    33    15    16    1
    34    15    42    1
    35    15    43    1
    36    16    17    1
    37    16    44    1
    38    16    45    1
    39    17    18   am
    40    18    19    2
    41    18    20    1
    42    20    25    1
    43    20    21    2
    44    21    22    1
    45    21    46    1
    46    22    23    1
    47    22    24    2
    48    24    25    1
    49    25    47    1
@<TRIPOS>SUBSTRUCTURE
     1 ZINC000854500114        1 TEMP              0 ****  ****    0 ROOT


##########                                Name:    ZINC001179023006
##########                DOCK_Rotatable_Bonds:                   3
##########                         Heavy_Atoms:                  25
##########                    Molecular_Weight:             340.465
##########                DOCK_Rotatable_Bonds:                   3
##########                       Formal_Charge:          -0.0100005
##########                     HBond_Acceptors:                   4
##########                        HBond_Donors:                   1
##########                         Heavy_Atoms:                  25
##########                          Grid_Score:          -26.792839
##########                     Grid_vdw_energy:          -27.120163
##########                      Grid_es_energy:            0.327323
##########           Internal_energy_repulsive:           55.322834

@<TRIPOS>MOLECULE
ZINC001179023006
 53 56 1 0 0
SMALL
USER_CHARGES


@<TRIPOS>ATOM
      1 C1        -10.4359    3.6021   62.3795 C.3     1  ZINC001179023006   -0.1500
      2 C2        -10.6288    2.2973   61.6042 C.3     1  ZINC001179023006   -0.1100
      3 C3        -10.2336    1.1144   62.4905 C.3     1  ZINC001179023006   -0.1100
      4 C4        -10.1528   -0.1846   61.7309 C.2     1  ZINC001179023006    0.5400
      5 O5         -9.0728   -0.6859   61.5003 O.2     1  ZINC001179023006   -0.5400
      6 N6        -11.2806   -0.7894   61.3080 N.am    1  ZINC001179023006   -0.5900
      7 C7        -11.2183   -2.0530   60.5612 C.3     1  ZINC001179023006    0.1000
      8 C8        -12.0021   -1.9022   59.2596 C.3     1  ZINC001179023006   -0.1200
      9 C9        -13.4316   -1.4408   59.5788 C.3     1  ZINC001179023006   -0.0500
     10 C10       -13.3615   -0.0658   60.2594 C.3     1  ZINC001179023006   -0.1100
     11 C11       -12.5966   -0.1954   61.5794 C.3     1  ZINC001179023006    0.0900
     12 C12       -14.2133   -1.3113   58.2811 C.3     1  ZINC001179023006   -0.0800
     13 C13       -14.2209   -2.5954   57.5094 C.ar    1  ZINC001179023006   -0.0700
     14 C14       -13.4511   -2.6812   56.3538 C.ar    1  ZINC001179023006   -0.1100
     15 C15       -13.3877   -3.8706   55.6547 C.ar    1  ZINC001179023006   -0.1100
     16 C16       -14.0877   -4.9770   56.0978 C.ar    1  ZINC001179023006   -0.1200
     17 C17       -14.8638   -4.8845   57.2395 C.ar    1  ZINC001179023006   -0.1000
     18 C18       -14.9266   -3.6850   57.9261 C.ar    1  ZINC001179023006   -0.1100
     19 C19       -15.7929   -3.5705   59.1544 C.3     1  ZINC001179023006    0.1400
     20 N20       -15.0057   -3.3107   60.3393 N.am    1  ZINC001179023006   -0.7000
     21 C21       -14.0648   -2.4194   60.5168 C.2     1  ZINC001179023006    0.5200
     22 O22       -13.6257   -2.3794   61.6466 O.2     1  ZINC001179023006   -0.5500
     23 C23       -11.0504    1.0183   63.7900 C.3     1  ZINC001179023006   -0.1200
     24 C24        -9.7365    0.6302   64.4923 C.3     1  ZINC001179023006   -0.1400
     25 C25        -9.0047    1.3894   63.3730 C.3     1  ZINC001179023006   -0.1300
     26 H26       -10.7536    4.4421   61.7617 H       1  ZINC001179023006    0.0600
     27 H27       -11.0332    3.5750   63.2908 H       1  ZINC001179023006    0.0500
     28 H28        -9.3835    3.7189   62.6381 H       1  ZINC001179023006    0.0600
     29 H29       -10.0021    2.3085   60.7125 H       1  ZINC001179023006    0.0700
     30 H30       -11.6744    2.1993   61.3123 H       1  ZINC001179023006    0.0700
     31 H31       -10.1794   -2.2926   60.3346 H       1  ZINC001179023006    0.0900
     32 H32       -11.6574   -2.8523   61.1582 H       1  ZINC001179023006    0.0800
     33 H33       -12.0361   -2.8601   58.7406 H       1  ZINC001179023006    0.0800
     34 H34       -11.5135   -1.1619   58.6260 H       1  ZINC001179023006    0.0800
     35 H35       -14.3710    0.2944   60.4575 H       1  ZINC001179023006    0.0800
     36 H36       -12.8452    0.6384   59.6070 H       1  ZINC001179023006    0.0800
     37 H37       -13.1531   -0.8369   62.2627 H       1  ZINC001179023006    0.1200
     38 H38       -12.4672    0.7909   62.0251 H       1  ZINC001179023006    0.0800
     39 H39       -15.2406   -1.0288   58.5113 H       1  ZINC001179023006    0.0800
     40 H40       -13.7600   -0.5315   57.6691 H       1  ZINC001179023006    0.0900
     41 H41       -12.9034   -1.8188   56.0039 H       1  ZINC001179023006    0.1200
     42 H42       -12.7891   -3.9363   54.7583 H       1  ZINC001179023006    0.1200
     43 H43       -14.0289   -5.9091   55.5555 H       1  ZINC001179023006    0.1300
     44 H44       -15.4167   -5.7426   57.5921 H       1  ZINC001179023006    0.1300
     45 H45       -16.3430   -4.5017   59.2899 H       1  ZINC001179023006    0.0900
     46 H46       -16.5037   -2.7562   59.0138 H       1  ZINC001179023006    0.0800
     47 H47       -15.2014   -3.8730   61.1050 H       1  ZINC001179023006    0.4000
     48 H48       -11.4571    1.9736   64.1217 H       1  ZINC001179023006    0.0900
     49 H49       -11.7936    0.2210   63.7805 H       1  ZINC001179023006    0.0800
     50 H50        -9.5428   -0.4425   64.4913 H       1  ZINC001179023006    0.0800
     51 H51        -9.6155    1.0811   65.4772 H       1  ZINC001179023006    0.0700
     52 H52        -8.0987    0.8912   63.0276 H       1  ZINC001179023006    0.0700
     53 H53        -8.8510    2.4464   63.5906 H       1  ZINC001179023006    0.0900
@<TRIPOS>BOND
     1     1     2    1
     2     1    26    1
     3     1    27    1
     4     1    28    1
     5     2     3    1
     6     2    29    1
     7     2    30    1
     8     3    25    1
     9     3     4    1
    10     3    23    1
    11     4     5    2
    12     4     6   am
    13     6    11    1
    14     6     7    1
    15     7     8    1
    16     7    31    1
    17     7    32    1
    18     8     9    1
    19     8    33    1
    20     8    34    1
    21     9    21    1
    22     9    10    1
    23     9    12    1
    24    10    11    1
    25    10    35    1
    26    10    36    1
    27    11    37    1
    28    11    38    1
    29    12    13    1
    30    12    39    1
    31    12    40    1
    32    13    18   ar
    33    13    14   ar
    34    14    15   ar
    35    14    41    1
    36    15    16   ar
    37    15    42    1
    38    16    17   ar
    39    16    43    1
    40    17    18   ar
    41    17    44    1
    42    18    19    1
    43    19    20    1
    44    19    45    1
    45    19    46    1
    46    20    21   am
    47    20    47    1
    48    21    22    2
    49    23    24    1
    50    23    48    1
    51    23    49    1
    52    24    25    1
    53    24    50    1
    54    24    51    1
    55    25    52    1
    56    25    53    1
@<TRIPOS>SUBSTRUCTURE
     1 ZINC001179023006        1 TEMP              0 ****  ****    0 ROOT


##########                                Name:    ZINC000521663393
##########                DOCK_Rotatable_Bonds:                   5
##########                         Heavy_Atoms:                  27
##########                    Molecular_Weight:              386.49
##########                DOCK_Rotatable_Bonds:                   5
##########                       Formal_Charge:               -0.02
##########                     HBond_Acceptors:                   6
##########                        HBond_Donors:                   1
##########                         Heavy_Atoms:                  27
##########                          Grid_Score:          -26.779804
##########                     Grid_vdw_energy:          -27.008711
##########                      Grid_es_energy:            0.228906
##########           Internal_energy_repulsive:           15.935150

@<TRIPOS>MOLECULE
ZINC000521663393
 50 53 1 0 0
SMALL
USER_CHARGES


@<TRIPOS>ATOM
      1 C1         -7.2216    4.1547   57.6916 C.3     1  ZINC000521663393   -0.1500
      2 C2         -7.1066    2.9384   56.7704 C.3     1  ZINC000521663393    0.0800
      3 H3         -6.3597    2.2398   57.1472 H       1  ZINC000521663393    0.0900
      4 O4         -6.7925    3.3446   55.4275 O.3     1  ZINC000521663393   -0.2900
      5 C5         -7.3966    2.4974   54.5498 C.ar    1  ZINC000521663393    0.1400
      6 C6         -7.1212    2.2593   53.2061 C.ar    1  ZINC000521663393   -0.1800
      7 C7         -7.8779    1.3502   52.4915 C.ar    1  ZINC000521663393    0.1400
      8 F8         -7.6046    1.1253   51.1877 F       1  ZINC000521663393   -0.1300
      9 C9         -8.9149    0.6686   53.1059 C.ar    1  ZINC000521663393   -0.1800
     10 C10        -9.1904    0.8977   54.4423 C.ar    1  ZINC000521663393   -0.0200
     11 C11        -8.4348    1.8010   55.1562 C.ar    1  ZINC000521663393   -0.2000
     12 C12        -8.4781    2.2409   56.6100 C.3     1  ZINC000521663393    0.1700
     13 H13        -9.2947    2.9423   56.7805 H       1  ZINC000521663393    0.1200
     14 N14        -8.5889    1.0852   57.5035 N.am    1  ZINC000521663393   -0.7200
     15 C15        -9.7219    0.8815   58.2045 C.2     1  ZINC000521663393    0.5300
     16 O16       -10.6503    1.6541   58.0944 O.2     1  ZINC000521663393   -0.5000
     17 C17        -9.8352   -0.3063   59.1249 C.3     1  ZINC000521663393    0.1200
     18 H18        -9.1406   -1.0825   58.8037 H       1  ZINC000521663393    0.0700
     19 C19        -9.5011    0.1155   60.5327 C.ar    1  ZINC000521663393   -0.0900
     20 C20        -9.9884    1.3095   61.0305 C.ar    1  ZINC000521663393   -0.0900
     21 C21        -9.6819    1.6963   62.3217 C.ar    1  ZINC000521663393   -0.1200
     22 C22        -8.8886    0.8890   63.1153 C.ar    1  ZINC000521663393   -0.1100
     23 C23        -8.4022   -0.3055   62.6178 C.ar    1  ZINC000521663393   -0.1200
     24 C24        -8.7121   -0.6944   61.3280 C.ar    1  ZINC000521663393   -0.1100
     25 N25       -11.2073   -0.8292   59.0831 N.3     1  ZINC000521663393   -0.5300
     26 C26       -11.3858   -1.9132   60.0517 C.3     1  ZINC000521663393    0.0500
     27 C27       -12.8793   -2.1393   60.3108 C.3     1  ZINC000521663393   -0.0700
     28 S28       -13.6667   -2.6406   58.7497 S.3     1  ZINC000521663393   -0.2700
     29 C29       -13.1007   -1.3413   57.6094 C.3     1  ZINC000521663393   -0.0700
     30 C30       -11.5768   -1.2251   57.7222 C.3     1  ZINC000521663393    0.0600
     31 H31        -7.5278    3.8296   58.6860 H       1  ZINC000521663393    0.0800
     32 H32        -6.2556    4.6554   57.7544 H       1  ZINC000521663393    0.0800
     33 H33        -7.9635    4.8453   57.2907 H       1  ZINC000521663393    0.0700
     34 H34        -6.3137    2.7870   52.7205 H       1  ZINC000521663393    0.1400
     35 H35        -9.5066   -0.0389   52.5441 H       1  ZINC000521663393    0.1400
     36 H36        -9.9980    0.3681   54.9256 H       1  ZINC000521663393    0.1300
     37 H37        -7.8469    0.4666   57.5907 H       1  ZINC000521663393    0.4000
     38 H38       -10.6081    1.9402   60.4105 H       1  ZINC000521663393    0.1300
     39 H39       -10.0620    2.6296   62.7104 H       1  ZINC000521663393    0.1300
     40 H40        -8.6487    1.1915   64.1239 H       1  ZINC000521663393    0.1200
     41 H41        -7.7821   -0.9361   63.2377 H       1  ZINC000521663393    0.1300
     42 H42        -8.3321   -1.6276   60.9393 H       1  ZINC000521663393    0.1200
     43 H43       -10.9442   -2.8282   59.6567 H       1  ZINC000521663393    0.0500
     44 H44       -10.8920   -1.6485   60.9867 H       1  ZINC000521663393    0.1000
     45 H45       -13.0070   -2.9258   61.0545 H       1  ZINC000521663393    0.1100
     46 H46       -13.3326   -1.2151   60.6695 H       1  ZINC000521663393    0.0900
     47 H47       -13.3732   -1.6065   56.5878 H       1  ZINC000521663393    0.1100
     48 H48       -13.5614   -0.3911   57.8794 H       1  ZINC000521663393    0.1000
     49 H49       -11.2175   -0.4758   57.0168 H       1  ZINC000521663393    0.0800
     50 H50       -11.1220   -2.1878   57.4890 H       1  ZINC000521663393    0.0500
@<TRIPOS>BOND
     1     1     2    1
     2     1    31    1
     3     1    32    1
     4     1    33    1
     5     2     3    1
     6     2    12    1
     7     2     4    1
     8     4     5    1
     9     5    11   ar
    10     5     6   ar
    11     6     7   ar
    12     6    34    1
    13     7     8    1
    14     7     9   ar
    15     9    10   ar
    16     9    35    1
    17    10    11   ar
    18    10    36    1
    19    11    12    1
    20    12    13    1
    21    12    14    1
    22    14    15   am
    23    14    37    1
    24    15    16    2
    25    15    17    1
    26    17    18    1
    27    17    19    1
    28    17    25    1
    29    19    24   ar
    30    19    20   ar
    31    20    21   ar
    32    20    38    1
    33    21    22   ar
    34    21    39    1
    35    22    23   ar
    36    22    40    1
    37    23    24   ar
    38    23    41    1
    39    24    42    1
    40    25    30    1
    41    25    26    1
    42    26    27    1
    43    26    43    1
    44    26    44    1
    45    27    28    1
    46    27    45    1
    47    27    46    1
    48    28    29    1
    49    29    30    1
    50    29    47    1
    51    29    48    1
    52    30    49    1
    53    30    50    1
@<TRIPOS>SUBSTRUCTURE
     1 ZINC000521663393        1 TEMP              0 ****  ****    0 ROOT


##########                                Name:    ZINC000893400114
##########                DOCK_Rotatable_Bonds:                   6
##########                         Heavy_Atoms:                  27
##########                    Molecular_Weight:             381.472
##########                DOCK_Rotatable_Bonds:                   6
##########                       Formal_Charge:           0.0300001
##########                     HBond_Acceptors:                   8
##########                        HBond_Donors:                   1
##########                         Heavy_Atoms:                  27
##########                          Grid_Score:          -26.752342
##########                     Grid_vdw_energy:          -25.734850
##########                      Grid_es_energy:           -1.017493
##########           Internal_energy_repulsive:          110.782318

@<TRIPOS>MOLECULE
ZINC000893400114
 58 61 1 0 0
SMALL
USER_CHARGES


@<TRIPOS>ATOM
      1 O1        -10.9232    0.0693   61.0381 O.2     1  ZINC000893400114   -0.5600
      2 C2         -9.9564    0.0002   61.7723 C.2     1  ZINC000893400114    0.7100
      3 N3         -8.7674   -0.4053   61.2844 N.am    1  ZINC000893400114   -0.7300
      4 C4         -8.6410   -0.7684   59.8707 C.3     1  ZINC000893400114    0.1400
      5 H5         -7.7566   -1.3860   59.7141 H       1  ZINC000893400114    0.1200
      6 C6         -8.5777    0.5007   58.9896 C.3     1  ZINC000893400114   -0.1400
      7 C7        -10.0601    0.6851   58.5960 C.3     1  ZINC000893400114    0.1000
      8 N8        -10.6570   -0.6530   58.6807 N.am    1  ZINC000893400114   -0.6200
      9 C9        -11.9318   -1.0300   58.0648 C.3     1  ZINC000893400114    0.1600
     10 C10       -12.8323    0.2041   57.9543 C.3     1  ZINC000893400114   -0.1700
     11 C11       -14.1294   -0.1827   57.2389 C.3     1  ZINC000893400114    0.0700
     12 O12       -13.8194   -0.7247   55.9535 O.3     1  ZINC000893400114   -0.3800
     13 C13       -13.0188   -1.9075   55.9965 C.3     1  ZINC000893400114    0.0700
     14 C14       -11.6771   -1.5900   56.6619 C.3     1  ZINC000893400114   -0.1700
     15 C15        -9.8824   -1.4913   59.3967 C.2     1  ZINC000893400114    0.5100
     16 O16       -10.1439   -2.6532   59.6265 O.2     1  ZINC000893400114   -0.4900
     17 N17       -10.0727    0.3343   63.0729 N.am    1  ZINC000893400114   -0.6300
     18 C18        -8.9156    0.2643   63.9792 C.3     1  ZINC000893400114    0.0800
     19 C19        -8.8045    1.5988   64.7254 C.3     1  ZINC000893400114    0.0500
     20 O20       -10.0641    1.9082   65.3266 O.3     1  ZINC000893400114   -0.3800
     21 C21       -11.1302    2.0897   64.3915 C.3     1  ZINC000893400114    0.0600
     22 C22       -11.3590    0.7856   63.6269 C.3     1  ZINC000893400114    0.1400
     23 H23       -11.7472    0.0258   64.3051 H       1  ZINC000893400114    0.0800
     24 C24       -12.3576    1.0221   62.4922 C.3     1  ZINC000893400114   -0.1200
     25 C25       -13.6180    1.6850   63.0518 C.3     1  ZINC000893400114    0.0700
     26 H26       -13.3553    2.6201   63.5465 H       1  ZINC000893400114    0.0800
     27 C27       -14.3067    0.7365   64.0565 C.3     1  ZINC000893400114   -0.1500
     28 C28       -15.8110    0.9573   63.7403 C.3     1  ZINC000893400114   -0.1600
     29 C29       -15.7576    1.1998   62.2108 C.3     1  ZINC000893400114    0.0500
     30 O30       -14.5447    1.9407   61.9900 O.3     1  ZINC000893400114   -0.3800
     31 H31        -7.9952   -0.4565   61.8692 H       1  ZINC000893400114    0.4000
     32 H32        -8.2169    1.3554   59.5618 H       1  ZINC000893400114    0.1000
     33 H33        -7.9581    0.3334   58.1086 H       1  ZINC000893400114    0.1000
     34 H34       -10.5537    1.3630   59.2922 H       1  ZINC000893400114    0.0700
     35 H35       -10.1354    1.0679   57.5782 H       1  ZINC000893400114    0.0800
     36 H36       -12.4222   -1.7875   58.6762 H       1  ZINC000893400114    0.0900
     37 H37       -13.0638    0.5765   58.9522 H       1  ZINC000893400114    0.0800
     38 H38       -12.3196    0.9793   57.3850 H       1  ZINC000893400114    0.0900
     39 H39       -14.6614   -0.9288   57.8292 H       1  ZINC000893400114    0.0500
     40 H40       -14.7561    0.7010   57.1194 H       1  ZINC000893400114    0.1000
     41 H41       -13.5364   -2.6761   56.5705 H       1  ZINC000893400114    0.0500
     42 H42       -12.8455   -2.2662   54.9820 H       1  ZINC000893400114    0.1000
     43 H43       -11.1411   -0.8509   56.0665 H       1  ZINC000893400114    0.0900
     44 H44       -11.0825   -2.5005   56.7355 H       1  ZINC000893400114    0.0700
     45 H45        -9.0582   -0.5456   64.6946 H       1  ZINC000893400114    0.0800
     46 H46        -8.0074    0.0896   63.4023 H       1  ZINC000893400114    0.0800
     47 H47        -8.0410    1.5206   65.4994 H       1  ZINC000893400114    0.1100
     48 H48        -8.5328    2.3870   64.0232 H       1  ZINC000893400114    0.0500
     49 H49       -12.0398    2.3646   64.9252 H       1  ZINC000893400114    0.1300
     50 H50       -10.8670    2.8796   63.6881 H       1  ZINC000893400114    0.0500
     51 H51       -11.9078    1.6722   61.7418 H       1  ZINC000893400114    0.0800
     52 H52       -12.6212    0.0681   62.0354 H       1  ZINC000893400114    0.1100
     53 H53       -14.0194   -0.2987   63.8721 H       1  ZINC000893400114    0.0800
     54 H54       -14.0792    1.0266   65.0823 H       1  ZINC000893400114    0.0800
     55 H55       -16.3967    0.0692   63.9769 H       1  ZINC000893400114    0.0800
     56 H56       -16.1981    1.8319   64.2633 H       1  ZINC000893400114    0.0800
     57 H57       -15.7235    0.2494   61.6781 H       1  ZINC000893400114    0.0600
     58 H58       -16.6203    1.7836   61.8898 H       1  ZINC000893400114    0.0800
@<TRIPOS>BOND
     1     1     2    2
     2     2     3   am
     3     2    17   am
     4     3     4    1
     5     3    31    1
     6     4     5    1
     7     4    15    1
     8     4     6    1
     9     6     7    1
    10     6    32    1
    11     6    33    1
    12     7     8    1
    13     7    34    1
    14     7    35    1
    15     8     9    1
    16     8    15   am
    17     9    14    1
    18     9    10    1
    19     9    36    1
    20    10    11    1
    21    10    37    1
    22    10    38    1
    23    11    12    1
    24    11    39    1
    25    11    40    1
    26    12    13    1
    27    13    14    1
    28    13    41    1
    29    13    42    1
    30    14    43    1
    31    14    44    1
    32    15    16    2
    33    17    22    1
    34    17    18    1
    35    18    19    1
    36    18    45    1
    37    18    46    1
    38    19    20    1
    39    19    47    1
    40    19    48    1
    41    20    21    1
    42    21    22    1
    43    21    49    1
    44    21    50    1
    45    22    23    1
    46    22    24    1
    47    24    25    1
    48    24    51    1
    49    24    52    1
    50    25    26    1
    51    25    30    1
    52    25    27    1
    53    27    28    1
    54    27    53    1
    55    27    54    1
    56    28    29    1
    57    28    55    1
    58    28    56    1
    59    29    30    1
    60    29    57    1
    61    29    58    1
@<TRIPOS>SUBSTRUCTURE
     1 ZINC000893400114        1 TEMP              0 ****  ****    0 ROOT


##########                                Name:    ZINC000826052721
##########                DOCK_Rotatable_Bonds:                   3
##########                         Heavy_Atoms:                  29
##########                    Molecular_Weight:             393.399
##########                DOCK_Rotatable_Bonds:                   3
##########                       Formal_Charge:        -4.47035e-07
##########                     HBond_Acceptors:                   9
##########                        HBond_Donors:                   2
##########                         Heavy_Atoms:                  29
##########                          Grid_Score:          -26.697754
##########                     Grid_vdw_energy:          -21.027281
##########                      Grid_es_energy:           -5.670474
##########           Internal_energy_repulsive:           10.418506

@<TRIPOS>MOLECULE
ZINC000826052721
 46 50 1 0 0
SMALL
USER_CHARGES


@<TRIPOS>ATOM
      1 C1         -8.1508   -0.0653   63.4874 C.3     1  ZINC000826052721   -0.0400
      2 N2         -8.5954    1.2585   63.0315 N.4     1  ZINC000826052721   -0.3800
      3 H3         -7.8220    1.7459   62.6045 H       1  ZINC000826052721    0.4300
      4 C4         -9.0905    2.0303   64.1749 C.3     1  ZINC000826052721    0.0500
      5 C5         -9.6887    3.3335   63.7150 C.ar    1  ZINC000826052721   -0.1300
      6 C6         -9.8504    4.3523   64.6415 C.ar    1  ZINC000826052721   -0.1000
      7 C7        -10.4006    5.5603   64.2613 C.ar    1  ZINC000826052721   -0.1000
      8 C8        -10.7927    5.7564   62.9505 C.ar    1  ZINC000826052721   -0.0800
      9 C9        -10.6311    4.7434   62.0260 C.ar    1  ZINC000826052721   -0.0800
     10 C10       -10.0779    3.5312   62.4067 C.ar    1  ZINC000826052721   -0.1200
     11 C11        -9.9153    2.4520   61.3669 C.3     1  ZINC000826052721    0.1100
     12 H12        -9.0618    2.6873   60.7310 H       1  ZINC000826052721    0.1100
     13 N13       -11.1308    2.3780   60.5455 N.3     1  ZINC000826052721   -0.6200
     14 C14       -11.4354    1.0672   60.2284 C.ar    1  ZINC000826052721    0.1600
     15 C15       -10.7003    0.3671   59.2656 C.ar    1  ZINC000826052721   -0.0400
     16 C16        -9.5762    1.0209   58.5645 C.2     1  ZINC000826052721    0.0700
     17 N17        -9.6376    2.1163   57.8035 N.2     1  ZINC000826052721   -0.3800
     18 N18        -8.4444    2.3613   57.3810 N.2     1  ZINC000826052721   -0.1600
     19 N19        -7.6402    1.4650   57.8346 N.2     1  ZINC000826052721   -0.1700
     20 N20        -8.2996    0.6297   58.5623 N.pl3   1  ZINC000826052721   -0.3400
     21 C21       -11.0379   -0.9627   58.9759 C.ar    1  ZINC000826052721    0.1800
     22 N22       -12.0320   -1.5660   59.5776 N.ar    1  ZINC000826052721   -0.4700
     23 C23       -12.7779   -0.9503   60.5047 C.ar    1  ZINC000826052721    0.0900
     24 C24       -13.8416   -1.6218   61.1345 C.ar    1  ZINC000826052721    0.1700
     25 F25       -14.1218   -2.9027   60.8090 F       1  ZINC000826052721   -0.1100
     26 C26       -14.5884   -0.9760   62.0753 C.ar    1  ZINC000826052721   -0.1900
     27 C27       -14.3156    0.3452   62.4250 C.ar    1  ZINC000826052721    0.1300
     28 F28       -15.0734    0.9585   63.3603 F       1  ZINC000826052721   -0.1300
     29 C29       -13.2916    1.0267   61.8332 C.ar    1  ZINC000826052721   -0.1500
     30 C30       -12.5044    0.3913   60.8626 C.ar    1  ZINC000826052721   -0.0600
     31 C31        -9.6823    1.1052   62.0527 C.3     1  ZINC000826052721    0.0000
     32 H32        -8.9881   -0.5921   63.9452 H       1  ZINC000826052721    0.1200
     33 H33        -7.7829   -0.6382   62.6361 H       1  ZINC000826052721    0.1300
     34 H34        -7.3515    0.0520   64.2191 H       1  ZINC000826052721    0.1200
     35 H35        -8.2640    2.2346   64.8556 H       1  ZINC000826052721    0.1400
     36 H36        -9.8510    1.4504   64.6978 H       1  ZINC000826052721    0.1400
     37 H37        -9.5441    4.2003   65.6659 H       1  ZINC000826052721    0.1300
     38 H38       -10.5241    6.3506   64.9868 H       1  ZINC000826052721    0.1300
     39 H39       -11.2242    6.6999   62.6500 H       1  ZINC000826052721    0.1300
     40 H40       -10.9367    4.8967   61.0016 H       1  ZINC000826052721    0.1400
     41 H41       -11.0390    2.9395   59.7123 H       1  ZINC000826052721    0.4100
     42 H42       -10.4661   -1.5015   58.2348 H       1  ZINC000826052721    0.1800
     43 H43       -15.4037   -1.4961   62.5561 H       1  ZINC000826052721    0.1600
     44 H44       -13.0890    2.0505   62.1112 H       1  ZINC000826052721    0.1400
     45 H45       -10.5933    0.7917   62.5624 H       1  ZINC000826052721    0.1400
     46 H46        -9.4010    0.3596   61.3089 H       1  ZINC000826052721    0.1400
@<TRIPOS>BOND
     1     1     2    1
     2     1    32    1
     3     1    33    1
     4     1    34    1
     5     2     3    1
     6     2    31    1
     7     2     4    1
     8     4     5    1
     9     4    35    1
    10     4    36    1
    11     5    10   ar
    12     5     6   ar
    13     6     7   ar
    14     6    37    1
    15     7     8   ar
    16     7    38    1
    17     8     9   ar
    18     8    39    1
    19     9    10   ar
    20     9    40    1
    21    10    11    1
    22    11    12    1
    23    11    13    1
    24    11    31    1
    25    13    14    1
    26    13    41    1
    27    14    30   ar
    28    14    15   ar
    29    15    16    1
    30    15    21   ar
    31    16    20    1
    32    16    17    2
    33    17    18    1
    34    18    19    2
    35    19    20    1
    36    21    22   ar
    37    21    42    1
    38    22    23   ar
    39    23    30   ar
    40    23    24   ar
    41    24    25    1
    42    24    26   ar
    43    26    27   ar
    44    26    43    1
    45    27    28    1
    46    27    29   ar
    47    29    30   ar
    48    29    44    1
    49    31    45    1
    50    31    46    1
@<TRIPOS>SUBSTRUCTURE
     1 ZINC000826052721        1 TEMP              0 ****  ****    0 ROOT


##########                                Name:    ZINC000441887161
##########                DOCK_Rotatable_Bonds:                   6
##########                         Heavy_Atoms:                  27
##########                    Molecular_Weight:             383.514
##########                DOCK_Rotatable_Bonds:                   6
##########                       Formal_Charge:          -0.0300002
##########                     HBond_Acceptors:                   6
##########                        HBond_Donors:                   1
##########                         Heavy_Atoms:                  27
##########                          Grid_Score:          -26.683933
##########                     Grid_vdw_energy:          -26.906679
##########                      Grid_es_energy:            0.222745
##########           Internal_energy_repulsive:           17.944857

@<TRIPOS>MOLECULE
ZINC000441887161
 52 54 1 0 0
SMALL
USER_CHARGES


@<TRIPOS>ATOM
      1 C1         -8.5878    0.1763   52.4501 C.3     1  ZINC000441887161   -0.1200
      2 C2         -9.8505   -0.0895   53.2285 C.ar    1  ZINC000441887161   -0.0700
      3 C3        -10.7267   -1.0727   52.8092 C.ar    1  ZINC000441887161   -0.1200
      4 C4        -11.8851   -1.3167   53.5234 C.ar    1  ZINC000441887161   -0.0900
      5 C5        -12.1667   -0.5777   54.6569 C.ar    1  ZINC000441887161   -0.1100
      6 C6        -13.4296   -0.8432   55.4351 C.3     1  ZINC000441887161    0.1900
      7 H7        -13.2519   -0.6502   56.4930 H       1  ZINC000441887161    0.1000
      8 C8        -14.5432    0.0758   54.9290 C.3     1  ZINC000441887161    0.1000
      9 N9        -14.7096   -0.1079   53.4850 N.pl3   1  ZINC000441887161   -0.4600
     10 C10       -15.5274   -1.0177   52.8709 C.2     1  ZINC000441887161   -0.0500
     11 C11       -15.3750   -0.8451   51.5440 C.2     1  ZINC000441887161   -0.0200
     12 N12       -14.4883    0.1430   51.3532 N.2     1  ZINC000441887161   -0.4900
     13 C13       -14.0893    0.5928   52.5114 C.2     1  ZINC000441887161    0.1800
     14 N14       -13.8298   -2.2409   55.2542 N.am    1  ZINC000441887161   -1.1100
     15 S15       -13.1806   -3.4196   56.2193 S.o2    1  ZINC000441887161    2.6900
     16 O16       -13.8712   -4.6210   55.9050 O.2     1  ZINC000441887161   -0.9600
     17 O17       -11.7693   -3.2860   56.1216 O.2     1  ZINC000441887161   -0.9500
     18 C18       -13.6038   -3.0232   57.8831 C.ar    1  ZINC000441887161   -0.6800
     19 C19       -14.8457   -3.3690   58.3816 C.ar    1  ZINC000441887161   -0.0300
     20 C20       -15.1778   -3.0578   59.6870 C.ar    1  ZINC000441887161   -0.1300
     21 C21       -14.2677   -2.4014   60.4940 C.ar    1  ZINC000441887161   -0.0200
     22 C22       -14.6299   -2.0618   61.9168 C.3     1  ZINC000441887161   -0.1300
     23 C23       -13.0249   -2.0566   59.9958 C.ar    1  ZINC000441887161   -0.1000
     24 C24       -12.0325   -1.3412   60.8757 C.3     1  ZINC000441887161   -0.1200
     25 C25       -12.6915   -2.3711   58.6919 C.ar    1  ZINC000441887161   -0.0100
     26 C26       -11.2895    0.4049   55.0771 C.ar    1  ZINC000441887161   -0.0700
     27 C27       -11.5963    1.2104   56.3132 C.3     1  ZINC000441887161   -0.1300
     28 C28       -10.1296    0.6462   54.3652 C.ar    1  ZINC000441887161   -0.1200
     29 H29        -7.7850   -0.4533   52.8337 H       1  ZINC000441887161    0.0700
     30 H30        -8.7555   -0.0502   51.3972 H       1  ZINC000441887161    0.0700
     31 H31        -8.3095    1.2249   52.5563 H       1  ZINC000441887161    0.0700
     32 H32       -10.5066   -1.6503   51.9235 H       1  ZINC000441887161    0.1200
     33 H33       -12.5701   -2.0845   53.1953 H       1  ZINC000441887161    0.1200
     34 H34       -15.4761   -0.1702   55.4363 H       1  ZINC000441887161    0.1100
     35 H35       -14.2801    1.1132   55.1353 H       1  ZINC000441887161    0.1000
     36 H36       -16.1709   -1.7361   53.3570 H       1  ZINC000441887161    0.1700
     37 H37       -15.8785   -1.4045   50.7694 H       1  ZINC000441887161    0.1600
     38 H38       -13.3761    1.3890   52.6657 H       1  ZINC000441887161    0.2000
     39 H39       -14.4751   -2.4758   54.5692 H       1  ZINC000441887161    0.4200
     40 H40       -15.5568   -3.8820   57.7511 H       1  ZINC000441887161    0.1300
     41 H41       -16.1485   -3.3275   60.0762 H       1  ZINC000441887161    0.1300
     42 H42       -14.3411   -2.8841   62.5714 H       1  ZINC000441887161    0.0800
     43 H43       -14.1051   -1.1554   62.2189 H       1  ZINC000441887161    0.0800
     44 H44       -15.7054   -1.9001   61.9893 H       1  ZINC000441887161    0.0700
     45 H45       -11.4174   -2.0731   61.3994 H       1  ZINC000441887161    0.0800
     46 H46       -11.3957   -0.7042   60.2620 H       1  ZINC000441887161    0.0700
     47 H47       -12.5664   -0.7289   61.6025 H       1  ZINC000441887161    0.0700
     48 H48       -11.7207   -2.1017   58.3028 H       1  ZINC000441887161    0.1400
     49 H49       -11.1712    0.7135   57.1854 H       1  ZINC000441887161    0.0800
     50 H50       -11.1633    2.2058   56.2152 H       1  ZINC000441887161    0.0700
     51 H51       -12.6764    1.2943   56.4334 H       1  ZINC000441887161    0.0600
     52 H52        -9.4444    1.4138   54.6936 H       1  ZINC000441887161    0.1300
@<TRIPOS>BOND
     1     1     2    1
     2     1    29    1
     3     1    30    1
     4     1    31    1
     5     2    28   ar
     6     2     3   ar
     7     3     4   ar
     8     3    32    1
     9     4     5   ar
    10     4    33    1
    11     5     6    1
    12     5    26   ar
    13     6     7    1
    14     6     8    1
    15     6    14    1
    16     8     9    1
    17     8    34    1
    18     8    35    1
    19     9    13    1
    20     9    10    1
    21    10    11    2
    22    10    36    1
    23    11    12    1
    24    11    37    1
    25    12    13    2
    26    13    38    1
    27    14    15   am
    28    14    39    1
    29    15    16    2
    30    15    17    2
    31    15    18    1
    32    18    25   ar
    33    18    19   ar
    34    19    20   ar
    35    19    40    1
    36    20    21   ar
    37    20    41    1
    38    21    22    1
    39    21    23   ar
    40    22    42    1
    41    22    43    1
    42    22    44    1
    43    23    24    1
    44    23    25   ar
    45    24    45    1
    46    24    46    1
    47    24    47    1
    48    25    48    1
    49    26    27    1
    50    26    28   ar
    51    27    49    1
    52    27    50    1
    53    27    51    1
    54    28    52    1
@<TRIPOS>SUBSTRUCTURE
     1 ZINC000441887161        1 TEMP              0 ****  ****    0 ROOT


##########                                Name:    ZINC000652498551
##########                DOCK_Rotatable_Bonds:                   6
##########                         Heavy_Atoms:                  23
##########                    Molecular_Weight:             388.277
##########                DOCK_Rotatable_Bonds:                   6
##########                       Formal_Charge:          -0.0400001
##########                     HBond_Acceptors:                   5
##########                        HBond_Donors:                   1
##########                         Heavy_Atoms:                  23
##########                          Grid_Score:          -26.661171
##########                     Grid_vdw_energy:          -25.495937
##########                      Grid_es_energy:           -1.165233
##########           Internal_energy_repulsive:           17.283390

@<TRIPOS>MOLECULE
ZINC000652498551
 46 47 1 0 0
SMALL
USER_CHARGES


@<TRIPOS>ATOM
      1 C1        -10.7404   -1.1952   52.2168 C.3     1  ZINC000652498551   -0.1300
      2 C2        -10.9359    0.0038   53.1470 C.3     1  ZINC000652498551   -0.1300
      3 C3        -11.8841    1.0092   52.4907 C.3     1  ZINC000652498551   -0.1300
      4 C4        -11.5252   -0.4641   54.4526 C.2     1  ZINC000652498551    0.5000
      5 O5        -11.2458   -1.5688   54.8866 O.co2   1  ZINC000652498551   -0.7000
      6 O6        -12.2815    0.2619   55.0751 O.co2   1  ZINC000652498551   -0.6700
      7 C7         -9.5847    0.6725   53.4079 C.3     1  ZINC000652498551   -0.0600
      8 H8         -8.8266   -0.0924   53.5760 H       1  ZINC000652498551    0.0700
      9 C9         -9.6886    1.5700   54.6444 C.3     1  ZINC000652498551   -0.1500
     10 C10        -8.3550    2.2942   54.8508 C.3     1  ZINC000652498551   -0.1400
     11 C11        -8.0096    3.0853   53.5875 C.3     1  ZINC000652498551   -0.0100
     12 N12        -7.8986    2.1683   52.4467 N.4     1  ZINC000652498551   -0.3800
     13 H13        -7.2063    1.4629   52.6496 H       1  ZINC000652498551    0.4200
     14 C14        -7.4926    2.9214   51.2526 C.3     1  ZINC000652498551    0.0000
     15 C15        -6.6328    2.0293   50.3549 C.3     1  ZINC000652498551    0.0200
     16 O16        -5.6296    2.8218   49.7163 O.3     1  ZINC000652498551   -0.3100
     17 C17        -4.6000    3.2548   50.4905 C.ar    1  ZINC000652498551    0.1600
     18 C18        -3.4949    2.4422   50.6938 C.ar    1  ZINC000652498551   -0.2300
     19 C19        -2.4476    2.8851   51.4826 C.ar    1  ZINC000652498551    0.1500
     20 F20        -1.3704    2.0943   51.6813 F       1  ZINC000652498551   -0.1200
     21 C21        -2.5034    4.1386   52.0679 C.ar    1  ZINC000652498551   -0.1600
     22 C22        -3.6059    4.9496   51.8660 C.ar    1  ZINC000652498551   -0.0300
     23 Br23       -3.6789    6.6611   52.6667 Br      1  ZINC000652498551   -0.0100
     24 C24        -4.6511    4.5127   51.0739 C.ar    1  ZINC000652498551   -0.1300
     25 C25        -9.1932    1.5227   52.1975 C.3     1  ZINC000652498551   -0.0200
     26 H26       -10.3142   -0.8567   51.2725 H       1  ZINC000652498551    0.0400
     27 H27       -10.0649   -1.9114   52.6845 H       1  ZINC000652498551    0.0500
     28 H28       -11.7030   -1.6716   52.0310 H       1  ZINC000652498551    0.0600
     29 H29       -12.8468    0.5329   52.3048 H       1  ZINC000652498551    0.0700
     30 H30       -12.0235    1.8634   53.1533 H       1  ZINC000652498551    0.0400
     31 H31       -11.4579    1.3477   51.5463 H       1  ZINC000652498551    0.0500
     32 H32       -10.4822    2.3025   54.4975 H       1  ZINC000652498551    0.1300
     33 H33        -9.9115    0.9600   55.5198 H       1  ZINC000652498551    0.0800
     34 H34        -8.4388    2.9769   55.6964 H       1  ZINC000652498551    0.1000
     35 H35        -7.5708    1.5634   55.0487 H       1  ZINC000652498551    0.0700
     36 H36        -8.7943    3.8158   53.3908 H       1  ZINC000652498551    0.1300
     37 H37        -7.0609    3.6022   53.7311 H       1  ZINC000652498551    0.1100
     38 H38        -8.3795    3.2404   50.7052 H       1  ZINC000652498551    0.1400
     39 H39        -6.9169    3.7967   51.5533 H       1  ZINC000652498551    0.1500
     40 H40        -6.1561    1.2575   50.9591 H       1  ZINC000652498551    0.1100
     41 H41        -7.2622    1.5612   49.5980 H       1  ZINC000652498551    0.0900
     42 H42        -3.4516    1.4644   50.2372 H       1  ZINC000652498551    0.1500
     43 H43        -1.6855    4.4836   52.6830 H       1  ZINC000652498551    0.1500
     44 H44        -5.5111    5.1466   50.9166 H       1  ZINC000652498551    0.1500
     45 H45        -9.1178    0.8870   51.3154 H       1  ZINC000652498551    0.1100
     46 H46        -9.9531    2.2860   52.0304 H       1  ZINC000652498551    0.1700
@<TRIPOS>BOND
     1     1     2    1
     2     1    26    1
     3     1    27    1
     4     1    28    1
     5     2     3    1
     6     2     4    1
     7     2     7    1
     8     3    29    1
     9     3    30    1
    10     3    31    1
    11     4     5   ar
    12     4     6   ar
    13     7     8    1
    14     7    25    1
    15     7     9    1
    16     9    10    1
    17     9    32    1
    18     9    33    1
    19    10    11    1
    20    10    34    1
    21    10    35    1
    22    11    12    1
    23    11    36    1
    24    11    37    1
    25    12    13    1
    26    12    14    1
    27    12    25    1
    28    14    15    1
    29    14    38    1
    30    14    39    1
    31    15    16    1
    32    15    40    1
    33    15    41    1
    34    16    17    1
    35    17    24   ar
    36    17    18   ar
    37    18    19   ar
    38    18    42    1
    39    19    20    1
    40    19    21   ar
    41    21    22   ar
    42    21    43    1
    43    22    23    1
    44    22    24   ar
    45    24    44    1
    46    25    45    1
    47    25    46    1
@<TRIPOS>SUBSTRUCTURE
     1 ZINC000652498551        1 TEMP              0 ****  ****    0 ROOT


##########                                Name:    ZINC000876376999
##########                DOCK_Rotatable_Bonds:                   7
##########                         Heavy_Atoms:                  24
##########                    Molecular_Weight:             358.502
##########                DOCK_Rotatable_Bonds:                   7
##########                       Formal_Charge:          -0.0299994
##########                     HBond_Acceptors:                   7
##########                        HBond_Donors:                   2
##########                         Heavy_Atoms:                  24
##########                          Grid_Score:          -26.660049
##########                     Grid_vdw_energy:          -26.586063
##########                      Grid_es_energy:           -0.073987
##########           Internal_energy_repulsive:           32.243065

@<TRIPOS>MOLECULE
ZINC000876376999
 54 56 1 0 0
SMALL
USER_CHARGES


@<TRIPOS>ATOM
      1 C1         -5.9488    2.0489   50.6340 C.3     1  ZINC000876376999   -0.1500
      2 C2         -7.4582    2.2923   50.6931 C.3     1  ZINC000876376999   -0.1100
      3 C3         -7.9773    1.9393   52.0883 C.3     1  ZINC000876376999   -0.0700
      4 C4         -7.6563    0.4756   52.3975 C.3     1  ZINC000876376999    0.0900
      5 O5         -8.0396   -0.3405   51.2890 O.3     1  ZINC000876376999   -0.5600
      6 C6         -7.3052    2.8406   53.1267 C.3     1  ZINC000876376999   -0.1100
      7 C7         -7.7993    2.4663   54.5260 C.3     1  ZINC000876376999   -0.1400
      8 C8         -9.3136    2.6848   54.6038 C.3     1  ZINC000876376999    0.1100
      9 N9         -9.9562    1.9346   53.5162 N.am    1  ZINC000876376999   -0.6300
     10 C10       -10.9514    1.0639   53.7770 C.2     1  ZINC000876376999    0.7100
     11 O11       -11.4752    0.4492   52.8681 O.2     1  ZINC000876376999   -0.5800
     12 N12       -11.3660    0.8747   55.0454 N.am    1  ZINC000876376999   -0.7500
     13 C13       -12.4477   -0.0718   55.3290 C.3     1  ZINC000876376999    0.1400
     14 C14       -11.8671   -1.3293   55.9872 C.3     1  ZINC000876376999   -0.1100
     15 C15       -12.3021   -1.4171   57.4248 C.3     1  ZINC000876376999   -0.1100
     16 C16       -13.4853   -2.3487   57.7123 C.3     1  ZINC000876376999   -0.5200
     17 H17       -13.7887   -2.3624   58.7684 H       1  ZINC000876376999    0.1500
     18 C18       -14.6338   -1.9518   56.7567 C.3     1  ZINC000876376999   -0.1200
     19 C19       -14.4527   -2.5874   55.3825 C.3     1  ZINC000876376999   -0.1200
     20 C20       -13.1712   -3.4507   55.3302 C.3     1  ZINC000876376999   -0.5300
     21 H21       -13.2415   -4.2832   54.6164 H       1  ZINC000876376999    0.1500
     22 C22       -11.9907   -2.5098   55.0629 C.3     1  ZINC000876376999   -0.1000
     23 S23       -12.9923   -4.0052   57.0770 S.o2    1  ZINC000876376999    2.3700
     24 O24       -11.6269   -4.2590   57.3744 O.2     1  ZINC000876376999   -0.9300
     25 O25       -13.9906   -4.9666   57.3901 O.2     1  ZINC000876376999   -0.9300
     26 C26        -9.4936    2.1518   52.1386 C.3     1  ZINC000876376999    0.1400
     27 H27        -5.4435    2.7329   51.3158 H       1  ZINC000876376999    0.0500
     28 H28        -5.7348    1.0208   50.9261 H       1  ZINC000876376999    0.0600
     29 H29        -5.5928    2.2196   49.6180 H       1  ZINC000876376999    0.0500
     30 H30        -7.6655    3.3415   50.4830 H       1  ZINC000876376999    0.0600
     31 H31        -7.9562    1.6679   49.9514 H       1  ZINC000876376999    0.0700
     32 H32        -6.5863    0.3680   52.5751 H       1  ZINC000876376999    0.0500
     33 H33        -8.2053    0.1631   53.2858 H       1  ZINC000876376999    0.0400
     34 H34        -8.9837   -0.3059   51.0828 H       1  ZINC000876376999    0.3800
     35 H35        -6.2244    2.7095   53.0761 H       1  ZINC000876376999    0.0700
     36 H36        -7.5546    3.8814   52.9199 H       1  ZINC000876376999    0.0700
     37 H37        -7.5724    1.4187   54.7237 H       1  ZINC000876376999    0.0700
     38 H38        -7.3029    3.0928   55.2668 H       1  ZINC000876376999    0.0800
     39 H39        -9.6855    2.3270   55.5639 H       1  ZINC000876376999    0.0700
     40 H40        -9.5356    3.7464   54.4962 H       1  ZINC000876376999    0.0700
     41 H41       -10.9482    1.3652   55.7705 H       1  ZINC000876376999    0.3900
     42 H42       -13.1684    0.3914   56.0029 H       1  ZINC000876376999    0.0800
     43 H43       -12.9444   -0.3454   54.3981 H       1  ZINC000876376999    0.0700
     44 H44       -10.7615   -1.1178   56.0352 H       1  ZINC000876376999    0.0900
     45 H45       -11.4436   -1.7416   58.0384 H       1  ZINC000876376999    0.0900
     46 H46       -12.5575   -0.4050   57.7842 H       1  ZINC000876376999    0.0900
     47 H47       -15.5798   -2.3034   57.1800 H       1  ZINC000876376999    0.0800
     48 H48       -14.6818   -0.8709   56.6618 H       1  ZINC000876376999    0.0900
     49 H49       -15.3161   -3.2286   55.1798 H       1  ZINC000876376999    0.0800
     50 H50       -14.4123   -1.8157   54.6194 H       1  ZINC000876376999    0.0900
     51 H51       -12.0616   -2.1449   54.0234 H       1  ZINC000876376999    0.0900
     52 H52       -11.0571   -3.0977   55.1078 H       1  ZINC000876376999    0.0900
     53 H53        -9.7303    3.1701   51.8300 H       1  ZINC000876376999    0.0600
     54 H54        -9.9843    1.4424   51.4721 H       1  ZINC000876376999    0.1000
@<TRIPOS>BOND
     1     1     2    1
     2     1    27    1
     3     1    28    1
     4     1    29    1
     5     2     3    1
     6     2    30    1
     7     2    31    1
     8     3    26    1
     9     3     4    1
    10     3     6    1
    11     4     5    1
    12     4    32    1
    13     4    33    1
    14     5    34    1
    15     6     7    1
    16     6    35    1
    17     6    36    1
    18     7     8    1
    19     7    37    1
    20     7    38    1
    21     8     9    1
    22     8    39    1
    23     8    40    1
    24     9    10   am
    25     9    26    1
    26    10    11    2
    27    10    12   am
    28    12    13    1
    29    12    41    1
    30    13    14    1
    31    13    42    1
    32    13    43    1
    33    14    22    1
    34    14    15    1
    35    14    44    1
    36    15    16    1
    37    15    45    1
    38    15    46    1
    39    16    17    1
    40    16    23    1
    41    16    18    1
    42    18    19    1
    43    18    47    1
    44    18    48    1
    45    19    20    1
    46    19    49    1
    47    19    50    1
    48    20    21    1
    49    20    22    1
    50    20    23    1
    51    22    51    1
    52    22    52    1
    53    23    24    2
    54    23    25    2
    55    26    53    1
    56    26    54    1
@<TRIPOS>SUBSTRUCTURE
     1 ZINC000876376999        1 TEMP              0 ****  ****    0 ROOT


##########                                Name:    ZINC000811540126
##########                DOCK_Rotatable_Bonds:                   7
##########                         Heavy_Atoms:                  21
##########                    Molecular_Weight:             397.212
##########                DOCK_Rotatable_Bonds:                   7
##########                       Formal_Charge:           0.0100001
##########                     HBond_Acceptors:                   4
##########                        HBond_Donors:                   3
##########                         Heavy_Atoms:                  21
##########                          Grid_Score:          -26.657593
##########                     Grid_vdw_energy:          -25.706306
##########                      Grid_es_energy:           -0.951286
##########           Internal_energy_repulsive:            6.235571

@<TRIPOS>MOLECULE
ZINC000811540126
 37 38 1 0 0
SMALL
USER_CHARGES


@<TRIPOS>ATOM
      1 C1         -8.9802    0.9287   59.4856 C.3     1  ZINC000811540126   -0.1600
      2 C2         -9.9926   -0.1465   59.8857 C.3     1  ZINC000811540126    0.1200
      3 H3        -10.8858    0.3285   60.2916 H       1  ZINC000811540126    0.1000
      4 N4        -10.3536   -0.9397   58.7081 N.am    1  ZINC000811540126   -0.7200
      5 C5        -11.2906   -0.4865   57.8517 C.2     1  ZINC000811540126    0.5700
      6 O6        -11.8372    0.5800   58.0574 O.2     1  ZINC000811540126   -0.5100
      7 C7        -11.6529   -1.2844   56.6649 C.ar    1  ZINC000811540126   -0.1600
      8 C8        -11.1487   -0.9425   55.4080 C.ar    1  ZINC000811540126   -0.0400
      9 C9        -11.4912   -1.6923   54.3028 C.ar    1  ZINC000811540126   -0.1200
     10 I10       -10.7342   -1.1782   52.4183 I       1  ZINC000811540126   -0.0300
     11 C11       -12.3335   -2.7846   54.4332 C.ar    1  ZINC000811540126   -0.0400
     12 C12       -12.8391   -3.1331   55.6701 C.ar    1  ZINC000811540126   -0.1500
     13 C13       -12.5005   -2.3935   56.7931 C.ar    1  ZINC000811540126    0.1900
     14 O14       -12.9961   -2.7351   58.0088 O.3     1  ZINC000811540126   -0.4700
     15 C15        -9.3741   -1.0600   60.9458 C.3     1  ZINC000811540126    0.1400
     16 H16        -8.3519   -1.3080   60.6602 H       1  ZINC000811540126    0.1300
     17 O17       -10.1441   -2.2593   61.0492 O.3     1  ZINC000811540126   -0.5400
     18 C18        -9.3662   -0.3520   62.2762 C.ar    1  ZINC000811540126   -0.1200
     19 C19       -10.5434    0.1488   62.7996 C.ar    1  ZINC000811540126   -0.1100
     20 C20       -10.5361    0.7983   64.0200 C.ar    1  ZINC000811540126   -0.1100
     21 C21        -9.3515    0.9465   64.7169 C.ar    1  ZINC000811540126   -0.1200
     22 C22        -8.1744    0.4450   64.1937 C.ar    1  ZINC000811540126   -0.1100
     23 C23        -8.1825   -0.2083   62.9755 C.ar    1  ZINC000811540126   -0.1100
     24 H24        -9.4208    1.5795   58.7303 H       1  ZINC000811540126    0.0600
     25 H25        -8.7116    1.5188   60.3618 H       1  ZINC000811540126    0.0700
     26 H26        -8.0871    0.4537   59.0797 H       1  ZINC000811540126    0.0700
     27 H27        -9.9184   -1.7910   58.5446 H       1  ZINC000811540126    0.3900
     28 H28       -10.4918   -0.0918   55.3020 H       1  ZINC000811540126    0.1300
     29 H29       -12.5965   -3.3668   53.5624 H       1  ZINC000811540126    0.1400
     30 H30       -13.4954   -3.9857   55.7637 H       1  ZINC000811540126    0.1500
     31 H31       -12.3215   -2.8377   58.6940 H       1  ZINC000811540126    0.4000
     32 H32       -11.0853   -2.1095   61.2130 H       1  ZINC000811540126    0.3700
     33 H33       -11.4689    0.0331   62.2551 H       1  ZINC000811540126    0.1100
     34 H34       -11.4558    1.1902   64.4286 H       1  ZINC000811540126    0.1200
     35 H35        -9.3456    1.4546   65.6699 H       1  ZINC000811540126    0.1200
     36 H36        -7.2488    0.5611   64.7382 H       1  ZINC000811540126    0.1300
     37 H37        -7.2628   -0.6002   62.5669 H       1  ZINC000811540126    0.1200
@<TRIPOS>BOND
     1     1     2    1
     2     1    24    1
     3     1    25    1
     4     1    26    1
     5     2     3    1
     6     2     4    1
     7     2    15    1
     8     4     5   am
     9     4    27    1
    10     5     6    2
    11     5     7    1
    12     7    13   ar
    13     7     8   ar
    14     8     9   ar
    15     8    28    1
    16     9    10    1
    17     9    11   ar
    18    11    12   ar
    19    11    29    1
    20    12    13   ar
    21    12    30    1
    22    13    14    1
    23    14    31    1
    24    15    16    1
    25    15    17    1
    26    15    18    1
    27    17    32    1
    28    18    23   ar
    29    18    19   ar
    30    19    20   ar
    31    19    33    1
    32    20    21   ar
    33    20    34    1
    34    21    22   ar
    35    21    35    1
    36    22    23   ar
    37    22    36    1
    38    23    37    1
@<TRIPOS>SUBSTRUCTURE
     1 ZINC000811540126        1 TEMP              0 ****  ****    0 ROOT


##########                                Name:    ZINC000541252362
##########                DOCK_Rotatable_Bonds:                   5
##########                         Heavy_Atoms:                  27
##########                    Molecular_Weight:             401.254
##########                DOCK_Rotatable_Bonds:                   5
##########                       Formal_Charge:          -0.0199999
##########                     HBond_Acceptors:                   9
##########                        HBond_Donors:                   1
##########                         Heavy_Atoms:                  27
##########                          Grid_Score:          -26.649605
##########                     Grid_vdw_energy:          -27.276178
##########                      Grid_es_energy:            0.626573
##########           Internal_energy_repulsive:            3.473151

@<TRIPOS>MOLECULE
ZINC000541252362
 41 44 1 0 0
SMALL
USER_CHARGES


@<TRIPOS>ATOM
      1 C1        -10.8820   -0.8730   52.0856 C.3     1  ZINC000541252362    0.1000
      2 N2        -10.0755    0.0278   52.9129 N.pl3   1  ZINC000541252362   -0.3800
      3 C3         -9.1147    0.8675   52.4870 C.2     1  ZINC000541252362    0.2600
      4 N4         -8.6315    1.4981   53.5246 N.2     1  ZINC000541252362   -0.5300
      5 C5         -9.2582    1.0892   54.6359 C.2     1  ZINC000541252362    0.2700
      6 C6         -8.9865    1.5764   56.0111 C.ar    1  ZINC000541252362    0.0000
      7 C7         -8.1409    2.6656   56.2121 C.ar    1  ZINC000541252362   -0.1000
      8 C8         -7.8893    3.1182   57.4921 C.ar    1  ZINC000541252362   -0.1000
      9 C9         -8.4738    2.4938   58.5774 C.ar    1  ZINC000541252362   -0.1300
     10 C10        -9.3185    1.4070   58.3863 C.ar    1  ZINC000541252362    0.1400
     11 N11        -9.9087    0.7770   59.4878 N.am    1  ZINC000541252362   -0.6800
     12 C12        -9.2812   -0.2512   60.0923 C.2     1  ZINC000541252362    0.5100
     13 O13        -8.2049   -0.6306   59.6816 O.2     1  ZINC000541252362   -0.4900
     14 C14        -9.9168   -0.9295   61.2784 C.3     1  ZINC000541252362   -0.0600
     15 C15        -9.8644   -0.0096   62.4709 C.2     1  ZINC000541252362    0.0700
     16 C16       -10.5584    1.1414   62.6098 C.2     1  ZINC000541252362   -0.0700
     17 N17       -10.2277    1.6682   63.8284 N.pl3   1  ZINC000541252362   -0.3500
     18 C18       -10.6203    2.8014   64.4821 C.2     1  ZINC000541252362    0.0700
     19 C19       -10.1293    3.0947   65.7052 C.2     1  ZINC000541252362   -0.0500
     20 Cl20      -10.6417    4.5403   66.5184 Cl      1  ZINC000541252362   -0.0200
     21 C21        -9.2055    2.2344   66.3232 C.2     1  ZINC000541252362   -0.0900
     22 C22        -8.8065    1.1018   65.6826 C.2     1  ZINC000541252362    0.0200
     23 Cl23       -7.6667    0.0268   66.4304 Cl      1  ZINC000541252362   -0.0100
     24 C24        -9.3285    0.8102   64.4053 C.2     1  ZINC000541252362    0.2200
     25 N25        -9.1290   -0.1990   63.5688 N.2     1  ZINC000541252362   -0.4300
     26 C26        -9.5805    0.9502   57.1037 C.ar    1  ZINC000541252362   -0.0800
     27 N27       -10.1579    0.1889   54.3055 N.2     1  ZINC000541252362   -0.3100
     28 H28       -11.7812   -0.3540   51.7536 H       1  ZINC000541252362    0.0800
     29 H29       -10.3018   -1.1861   51.2176 H       1  ZINC000541252362    0.0900
     30 H30       -11.1630   -1.7491   52.6701 H       1  ZINC000541252362    0.0900
     31 H31        -8.7969    0.9980   51.4630 H       1  ZINC000541252362    0.2200
     32 H32        -7.6817    3.1557   55.3662 H       1  ZINC000541252362    0.1300
     33 H33        -7.2336    3.9625   57.6457 H       1  ZINC000541252362    0.1300
     34 H34        -8.2735    2.8510   59.5767 H       1  ZINC000541252362    0.1300
     35 H35       -10.7696    1.0804   59.8162 H       1  ZINC000541252362    0.4100
     36 H36       -10.9555   -1.1666   61.0477 H       1  ZINC000541252362    0.1200
     37 H37        -9.3760   -1.8486   61.5043 H       1  ZINC000541252362    0.1200
     38 H38       -11.2451    1.5664   61.8927 H       1  ZINC000541252362    0.1900
     39 H39       -11.3297    3.4692   64.0161 H       1  ZINC000541252362    0.1800
     40 H40        -8.8138    2.4711   67.3014 H       1  ZINC000541252362    0.1600
     41 H41       -10.2369    0.1059   56.9530 H       1  ZINC000541252362    0.1500
@<TRIPOS>BOND
     1     1     2    1
     2     1    28    1
     3     1    29    1
     4     1    30    1
     5     2    27    1
     6     2     3    1
     7     3     4    2
     8     3    31    1
     9     4     5    1
    10     5     6    1
    11     5    27    2
    12     6    26   ar
    13     6     7   ar
    14     7     8   ar
    15     7    32    1
    16     8     9   ar
    17     8    33    1
    18     9    10   ar
    19     9    34    1
    20    10    11    1
    21    10    26   ar
    22    11    12   am
    23    11    35    1
    24    12    13    2
    25    12    14    1
    26    14    15    1
    27    14    36    1
    28    14    37    1
    29    15    25    1
    30    15    16    2
    31    16    17    1
    32    16    38    1
    33    17    24    1
    34    17    18    1
    35    18    19    2
    36    18    39    1
    37    19    20    1
    38    19    21    1
    39    21    22    2
    40    21    40    1
    41    22    23    1
    42    22    24    1
    43    24    25    2
    44    26    41    1
@<TRIPOS>SUBSTRUCTURE
     1 ZINC000541252362        1 TEMP              0 ****  ****    0 ROOT


##########                                Name:    ZINC000326056918
##########                DOCK_Rotatable_Bonds:                   6
##########                         Heavy_Atoms:                  24
##########                    Molecular_Weight:             408.326
##########                DOCK_Rotatable_Bonds:                   6
##########                       Formal_Charge:         -0.00999978
##########                     HBond_Acceptors:                   9
##########                        HBond_Donors:                   0
##########                         Heavy_Atoms:                  24
##########                          Grid_Score:          -26.640419
##########                     Grid_vdw_energy:          -25.552956
##########                      Grid_es_energy:           -1.087463
##########           Internal_energy_repulsive:           22.821299

@<TRIPOS>MOLECULE
ZINC000326056918
 39 40 1 0 0
SMALL
USER_CHARGES


@<TRIPOS>ATOM
      1 C1        -10.0882    2.1404   63.9250 C.3     1  ZINC000326056918    0.0400
      2 O2        -11.4746    1.8461   63.6096 O.3     1  ZINC000326056918   -0.3500
      3 C3        -11.8439    1.9504   62.3164 C.2     1  ZINC000326056918    0.5000
      4 O4        -13.0226    2.0174   62.0240 O.2     1  ZINC000326056918   -0.4300
      5 C5        -10.8259    1.9828   61.2648 C.2     1  ZINC000326056918   -0.1600
      6 C6        -10.3143    0.8898   60.6217 C.2     1  ZINC000326056918   -0.6200
      7 S7        -10.8165   -0.7627   60.9709 S.o2    1  ZINC000326056918    2.6900
      8 O8         -9.6631   -1.4397   61.4510 O.2     1  ZINC000326056918   -0.9100
      9 O9        -12.0257   -0.6667   61.7111 O.2     1  ZINC000326056918   -0.9400
     10 N10       -11.2076   -1.4717   59.5264 N.am    1  ZINC000326056918   -0.9900
     11 C11       -10.4849   -2.6638   59.0761 C.3     1  ZINC000326056918    0.0900
     12 C12       -12.2763   -0.9069   58.6987 C.3     1  ZINC000326056918    0.1500
     13 C13       -12.9402   -2.0092   57.9145 C.ar    1  ZINC000326056918   -0.0900
     14 C14       -12.5750   -2.2396   56.6016 C.ar    1  ZINC000326056918   -0.0800
     15 C15       -13.1837   -3.2504   55.8814 C.ar    1  ZINC000326056918   -0.1100
     16 C16       -14.1587   -4.0322   56.4745 C.ar    1  ZINC000326056918   -0.0200
     17 Cl17      -14.9227   -5.3018   55.5701 Cl      1  ZINC000326056918   -0.0600
     18 C18       -14.5244   -3.8024   57.7889 C.ar    1  ZINC000326056918   -0.1100
     19 C19       -13.9113   -2.7944   58.5106 C.ar    1  ZINC000326056918   -0.0300
     20 Cl20      -14.3691   -2.5056   60.1601 Cl      1  ZINC000326056918   -0.0100
     21 C21        -9.3701    1.2086   59.6756 C.2     1  ZINC000326056918   -0.0400
     22 C22        -8.6732    0.1624   58.8445 C.3     1  ZINC000326056918   -0.1100
     23 C23        -9.1150    2.5162   59.5459 C.2     1  ZINC000326056918   -0.2600
     24 S24       -10.0704    3.4341   60.6208 S.3     1  ZINC000326056918    0.3100
     25 H25        -9.9254    2.0186   64.9959 H       1  ZINC000326056918    0.1100
     26 H26        -9.4382    1.4568   63.3787 H       1  ZINC000326056918    0.0700
     27 H27        -9.8600    3.1667   63.6372 H       1  ZINC000326056918    0.0700
     28 H28       -10.9384   -3.5517   59.5167 H       1  ZINC000326056918    0.0600
     29 H29       -10.5360   -2.7309   57.9894 H       1  ZINC000326056918    0.0700
     30 H30        -9.4424   -2.5958   59.3873 H       1  ZINC000326056918    0.0900
     31 H31       -13.0134   -0.4216   59.3384 H       1  ZINC000326056918    0.1100
     32 H32       -11.8543   -0.1746   58.0104 H       1  ZINC000326056918    0.0900
     33 H33       -11.8138   -1.6294   56.1381 H       1  ZINC000326056918    0.1400
     34 H34       -12.8984   -3.4294   54.8552 H       1  ZINC000326056918    0.1400
     35 H35       -15.2855   -4.4125   58.2525 H       1  ZINC000326056918    0.1500
     36 H36        -9.3000   -0.1018   57.9927 H       1  ZINC000326056918    0.0900
     37 H37        -7.7219    0.5568   58.4871 H       1  ZINC000326056918    0.0700
     38 H38        -8.4936   -0.7243   59.4524 H       1  ZINC000326056918    0.0900
     39 H39        -8.4022    2.9345   58.8506 H       1  ZINC000326056918    0.1800
@<TRIPOS>BOND
     1     1     2    1
     2     1    25    1
     3     1    26    1
     4     1    27    1
     5     2     3    1
     6     3     4    2
     7     3     5    1
     8     5    24    1
     9     5     6    2
    10     6     7    1
    11     6    21    1
    12     7     8    2
    13     7     9    2
    14     7    10   am
    15    10    11    1
    16    10    12    1
    17    11    28    1
    18    11    29    1
    19    11    30    1
    20    12    13    1
    21    12    31    1
    22    12    32    1
    23    13    19   ar
    24    13    14   ar
    25    14    15   ar
    26    14    33    1
    27    15    16   ar
    28    15    34    1
    29    16    17    1
    30    16    18   ar
    31    18    19   ar
    32    18    35    1
    33    19    20    1
    34    21    22    1
    35    21    23    2
    36    22    36    1
    37    22    37    1
    38    22    38    1
    39    23    24    1
    40    23    39    1
@<TRIPOS>SUBSTRUCTURE
     1 ZINC000326056918        1 TEMP              0 ****  ****    0 ROOT


##########                                Name:    ZINC000285228948
##########                DOCK_Rotatable_Bonds:                   8
##########                         Heavy_Atoms:                  23
##########                    Molecular_Weight:             339.822
##########                DOCK_Rotatable_Bonds:                   8
##########                       Formal_Charge:           0.0299997
##########                     HBond_Acceptors:                   7
##########                        HBond_Donors:                   3
##########                         Heavy_Atoms:                  23
##########                          Grid_Score:          -26.637993
##########                     Grid_vdw_energy:          -23.435598
##########                      Grid_es_energy:           -3.202394
##########           Internal_energy_repulsive:           24.757957

@<TRIPOS>MOLECULE
ZINC000285228948
 45 46 1 0 0
SMALL
USER_CHARGES


@<TRIPOS>ATOM
      1 C1        -12.0259   -3.1626   56.2551 C.3     1  <0>        -0.1600
      2 C2        -12.0239   -2.9534   57.7708 C.3     1  <0>         0.1800
      3 H3        -11.6194   -3.8398   58.2594 H       1  <0>         0.1100
      4 C4        -13.4340   -2.7167   58.2470 C.ar    1  <0>        -0.0900
      5 C5        -14.4823   -2.7504   57.3464 C.ar    1  <0>        -0.1000
      6 C6        -15.7757   -2.5335   57.7825 C.ar    1  <0>        -0.1100
      7 C7        -16.0212   -2.2823   59.1207 C.ar    1  <0>        -0.0300
      8 Cl8       -17.6456   -2.0101   59.6694 Cl      1  <0>        -0.0700
      9 C9        -14.9717   -2.2486   60.0216 C.ar    1  <0>        -0.1100
     10 C10       -13.6793   -2.4715   59.5852 C.ar    1  <0>        -0.0900
     11 N11       -11.1950   -1.7918   58.1023 N.am    1  <0>        -0.6100
     12 C12       -11.5840   -0.4579   57.6381 C.3     1  <0>         0.0600
     13 C13       -10.0746   -1.9504   58.8345 C.2     1  <0>         0.5200
     14 O14        -9.7535   -3.0546   59.2202 O.2     1  <0>        -0.5200
     15 C15        -9.2210   -0.7559   59.1741 C.3     1  <0>         0.0300
     16 N16        -9.9168    0.0780   60.1631 N.3     1  <0>        -0.4900
     17 C17        -9.4881    1.4963   60.0594 C.3     1  <0>         0.0400
     18 C18        -9.8781    2.0863   61.4379 C.3     1  <0>        -0.1400
     19 C19        -9.5668    0.9261   62.4110 C.3     1  <0>         0.1100
     20 O20        -8.2779    1.1060   63.0013 O.3     1  <0>        -0.5400
     21 C21       -10.6243    0.8432   63.4815 C.2     1  <0>         0.5000
     22 N22       -11.8390    0.3367   63.1910 N.am    1  <0>        -0.8500
     23 O23       -10.3822    1.2323   64.6045 O.2     1  <0>        -0.5200
     24 C24        -9.5836   -0.3443   61.5408 C.3     1  <0>         0.0600
     25 H25       -12.6427   -4.0268   56.0085 H       1  <0>         0.0700
     26 H26       -12.4305   -2.2762   55.7665 H       1  <0>         0.0600
     27 H27       -11.0061   -3.3338   55.9106 H       1  <0>         0.0700
     28 H28       -14.2904   -2.9461   56.3018 H       1  <0>         0.1400
     29 H29       -16.5945   -2.5595   57.0788 H       1  <0>         0.1300
     30 H30       -15.1626   -2.0523   61.0663 H       1  <0>         0.1400
     31 H31       -12.8600   -2.4455   60.2884 H       1  <0>         0.1300
     32 H32       -12.2570   -0.0023   58.3644 H       1  <0>         0.0600
     33 H33       -10.6944    0.1623   57.5281 H       1  <0>         0.0800
     34 H34       -12.0899   -0.5412   56.6762 H       1  <0>         0.0800
     35 H35        -8.2710   -1.0942   59.5880 H       1  <0>         0.1100
     36 H36        -9.0370   -0.1725   58.2719 H       1  <0>         0.0700
     37 H37        -8.4113    1.5623   59.9034 H       1  <0>         0.0400
     38 H38       -10.0257    2.0031   59.2580 H       1  <0>         0.1200
     39 H39        -9.2680    2.9591   61.6706 H       1  <0>         0.0900
     40 H40       -10.9385    2.3376   61.4639 H       1  <0>         0.0900
     41 H41        -7.8657    1.9559   62.7943 H       1  <0>         0.3800
     42 H42       -12.5200    0.2844   63.8797 H       1  <0>         0.4000
     43 H43       -12.0322    0.0244   62.2932 H       1  <0>         0.4100
     44 H44       -10.3396   -1.0373   61.9100 H       1  <0>         0.1100
     45 H45        -8.6021   -0.8182   61.5568 H       1  <0>         0.0700
@<TRIPOS>BOND
     1     1     2    1
     2     1    25    1
     3     1    26    1
     4     1    27    1
     5     2     3    1
     6     2     4    1
     7     2    11    1
     8     4    10   ar
     9     4     5   ar
    10     5     6   ar
    11     5    28    1
    12     6     7   ar
    13     6    29    1
    14     7     8    1
    15     7     9   ar
    16     9    10   ar
    17     9    30    1
    18    10    31    1
    19    11    12    1
    20    11    13   am
    21    12    32    1
    22    12    33    1
    23    12    34    1
    24    13    14    2
    25    13    15    1
    26    15    16    1
    27    15    35    1
    28    15    36    1
    29    16    24    1
    30    16    17    1
    31    17    18    1
    32    17    37    1
    33    17    38    1
    34    18    19    1
    35    18    39    1
    36    18    40    1
    37    19    20    1
    38    19    21    1
    39    19    24    1
    40    20    41    1
    41    21    22   am
    42    21    23    2
    43    22    42    1
    44    22    43    1
    45    24    44    1
    46    24    45    1
@<TRIPOS>SUBSTRUCTURE
     1 <0>         1 TEMP              0 ****  ****    0 ROOT


##########                                Name:    ZINC001065334255
##########                DOCK_Rotatable_Bonds:                   7
##########                         Heavy_Atoms:                  23
##########                    Molecular_Weight:             346.448
##########                DOCK_Rotatable_Bonds:                   7
##########                       Formal_Charge:        -5.81145e-07
##########                     HBond_Acceptors:                   8
##########                        HBond_Donors:                   1
##########                         Heavy_Atoms:                  23
##########                          Grid_Score:          -26.634932
##########                     Grid_vdw_energy:          -23.253614
##########                      Grid_es_energy:           -3.381318
##########           Internal_energy_repulsive:           16.708694

@<TRIPOS>MOLECULE
ZINC001065334255
 49 50 1 0 0
SMALL
USER_CHARGES


@<TRIPOS>ATOM
      1 C1        -12.0652   -1.3839   56.8967 C.3     1  ZINC001065334255   -0.1500
      2 C2        -12.4282   -2.7125   57.5630 C.3     1  ZINC001065334255   -0.0800
      3 C3        -13.0169   -3.6628   56.5183 C.3     1  ZINC001065334255   -0.1500
      4 C4        -11.1714   -3.3384   58.1710 C.3     1  ZINC001065334255   -0.1400
      5 C5        -10.7860   -2.5828   59.4165 C.2     1  ZINC001065334255    0.5100
      6 O6        -11.5083   -2.6104   60.3904 O.2     1  ZINC001065334255   -0.5300
      7 N7         -9.6387   -1.8763   59.4483 N.am    1  ZINC001065334255   -0.7300
      8 C8         -9.2633   -1.1432   60.6599 C.3     1  ZINC001065334255    0.1300
      9 C9         -9.9510    0.2236   60.6625 C.3     1  ZINC001065334255    0.0700
     10 H10       -10.8003    0.2051   59.9795 H       1  ZINC001065334255    0.0700
     11 C11       -10.4398    0.5481   62.0787 C.3     1  ZINC001065334255    0.0800
     12 N12       -10.9259    1.9369   62.0951 N.am    1  ZINC001065334255   -0.6100
     13 C13       -12.1385    2.2416   62.5984 C.2     1  ZINC001065334255    0.5400
     14 O14       -12.5212    3.3925   62.6035 O.2     1  ZINC001065334255   -0.5200
     15 C15       -13.0187    1.1524   63.1549 C.3     1  ZINC001065334255   -0.1100
     16 H16       -12.4171    0.4361   63.7145 H       1  ZINC001065334255    0.1200
     17 C17       -13.7603    0.4382   62.0113 C.3     1  ZINC001065334255   -0.1000
     18 C18       -14.8895   -0.4206   62.6147 C.3     1  ZINC001065334255   -0.5900
     19 S19       -15.3509    0.4241   64.1701 S.o2    1  ZINC001065334255    2.3900
     20 O20       -16.6525    0.9784   64.0367 O.2     1  ZINC001065334255   -0.9300
     21 O21       -15.0513   -0.4215   65.2721 O.2     1  ZINC001065334255   -0.9300
     22 C22       -14.1056    1.7661   64.0747 C.3     1  ZINC001065334255   -0.5900
     23 C23       -10.0489    2.9832   61.5462 C.3     1  ZINC001065334255    0.0600
     24 C24        -9.5791    2.5401   60.1559 C.3     1  ZINC001065334255    0.0500
     25 O25        -9.0224    1.2262   60.2427 O.3     1  ZINC001065334255   -0.3700
     26 H26       -12.9605   -0.9380   56.4635 H       1  ZINC001065334255    0.0600
     27 H27       -11.6458   -0.7068   57.6410 H       1  ZINC001065334255    0.0500
     28 H28       -11.3306   -1.5602   56.1110 H       1  ZINC001065334255    0.0600
     29 H29       -13.1628   -2.5362   58.3486 H       1  ZINC001065334255    0.0800
     30 H30       -12.2823   -3.8391   55.7325 H       1  ZINC001065334255    0.0500
     31 H31       -13.2755   -4.6093   56.9930 H       1  ZINC001065334255    0.0700
     32 H32       -13.9122   -3.2169   56.0852 H       1  ZINC001065334255    0.0500
     33 H33       -11.3702   -4.3797   58.4245 H       1  ZINC001065334255    0.0900
     34 H34       -10.3558   -3.2896   57.4494 H       1  ZINC001065334255    0.0900
     35 H35        -9.0616   -1.8532   58.6690 H       1  ZINC001065334255    0.4000
     36 H36        -9.5752   -1.7085   61.5380 H       1  ZINC001065334255    0.0900
     37 H37        -8.1822   -1.0060   60.6811 H       1  ZINC001065334255    0.0800
     38 H38       -11.2504   -0.1279   62.3512 H       1  ZINC001065334255    0.1100
     39 H39        -9.6169    0.4388   62.7851 H       1  ZINC001065334255    0.0900
     40 H40       -14.1852    1.1774   61.3321 H       1  ZINC001065334255    0.1000
     41 H41       -13.0652   -0.2005   61.4664 H       1  ZINC001065334255    0.1000
     42 H42       -15.7417   -0.4563   61.9360 H       1  ZINC001065334255    0.1500
     43 H43       -14.5286   -1.4277   62.8236 H       1  ZINC001065334255    0.1400
     44 H44       -13.6989    1.9874   65.0616 H       1  ZINC001065334255    0.1400
     45 H45       -14.5343    2.6603   63.6224 H       1  ZINC001065334255    0.1500
     46 H46       -10.6005    3.9199   61.4661 H       1  ZINC001065334255    0.1000
     47 H47        -9.1866    3.1192   62.1991 H       1  ZINC001065334255    0.0900
     48 H48       -10.4270    2.5309   59.4710 H       1  ZINC001065334255    0.0600
     49 H49        -8.8216    3.2330   59.7896 H       1  ZINC001065334255    0.1100
@<TRIPOS>BOND
     1     1     2    1
     2     1    26    1
     3     1    27    1
     4     1    28    1
     5     2     3    1
     6     2     4    1
     7     2    29    1
     8     3    30    1
     9     3    31    1
    10     3    32    1
    11     4     5    1
    12     4    33    1
    13     4    34    1
    14     5     6    2
    15     5     7   am
    16     7     8    1
    17     7    35    1
    18     8     9    1
    19     8    36    1
    20     8    37    1
    21     9    10    1
    22     9    25    1
    23     9    11    1
    24    11    12    1
    25    11    38    1
    26    11    39    1
    27    12    13   am
    28    12    23    1
    29    13    14    2
    30    13    15    1
    31    15    16    1
    32    15    22    1
    33    15    17    1
    34    17    18    1
    35    17    40    1
    36    17    41    1
    37    18    19    1
    38    18    42    1
    39    18    43    1
    40    19    20    2
    41    19    21    2
    42    19    22    1
    43    22    44    1
    44    22    45    1
    45    23    24    1
    46    23    46    1
    47    23    47    1
    48    24    25    1
    49    24    48    1
    50    24    49    1
@<TRIPOS>SUBSTRUCTURE
     1 ZINC001065334255        1 TEMP              0 ****  ****    0 ROOT


##########                                Name:    ZINC001045463759
##########                DOCK_Rotatable_Bonds:                   6
##########                         Heavy_Atoms:                  24
##########                    Molecular_Weight:             336.385
##########                DOCK_Rotatable_Bonds:                   6
##########                       Formal_Charge:          1.3411e-07
##########                     HBond_Acceptors:                   7
##########                        HBond_Donors:                   2
##########                         Heavy_Atoms:                  24
##########                          Grid_Score:          -26.597408
##########                     Grid_vdw_energy:          -26.213766
##########                      Grid_es_energy:           -0.383641
##########           Internal_energy_repulsive:            8.156916

@<TRIPOS>MOLECULE
ZINC001045463759
 46 49 1 0 0
SMALL
USER_CHARGES


@<TRIPOS>ATOM
      1 O1        -14.5753   -4.5522   57.3386 O.2     1  ZINC001045463759   -0.5100
      2 C2        -13.9624   -3.5463   57.0495 C.2     1  ZINC001045463759    0.5400
      3 N3        -13.9427   -2.5013   57.9005 N.am    1  ZINC001045463759   -0.7200
      4 C4        -14.6666   -2.5782   59.1718 C.3     1  ZINC001045463759    0.1400
      5 H5        -14.8174   -3.6235   59.4414 H       1  ZINC001045463759    0.1000
      6 C6        -16.0242   -1.8875   59.0283 C.3     1  ZINC001045463759   -0.1300
      7 C7        -16.7803   -1.9678   60.3560 C.3     1  ZINC001045463759   -0.1200
      8 C8        -15.9668   -1.2715   61.4490 C.3     1  ZINC001045463759   -0.1200
      9 C9        -14.6092   -1.9622   61.5925 C.3     1  ZINC001045463759   -0.1300
     10 C10       -13.8532   -1.8820   60.2648 C.3     1  ZINC001045463759    0.1500
     11 H11       -13.7024   -0.8366   59.9952 H       1  ZINC001045463759    0.0900
     12 N12       -12.5532   -2.5432   60.4023 N.pl3   1  ZINC001045463759   -0.7100
     13 C13       -11.4096   -1.7877   60.6041 C.ar    1  ZINC001045463759    0.4400
     14 C14       -10.1712   -2.2385   60.1431 C.ar    1  ZINC001045463759   -0.3000
     15 C15        -9.0607   -1.4490   60.3690 C.ar    1  ZINC001045463759    0.1800
     16 N16        -9.2052   -0.2983   61.0109 N.ar    1  ZINC001045463759   -0.5600
     17 C17       -10.3882    0.0994   61.4338 C.ar    1  ZINC001045463759    0.4000
     18 C18       -10.5027    1.4156   62.1590 C.3     1  ZINC001045463759   -0.1100
     19 C19       -10.8177    1.3724   63.6555 C.3     1  ZINC001045463759   -0.1500
     20 C20        -9.4152    1.7565   63.1798 C.3     1  ZINC001045463759   -0.1500
     21 N21       -11.4747   -0.6189   61.2353 N.ar    1  ZINC001045463759   -0.5700
     22 C22       -13.2178   -3.4672   55.7417 C.3     1  ZINC001045463759   -0.2000
     23 H23       -13.4354   -4.2619   55.0281 H       1  ZINC001045463759    0.1500
     24 C24       -12.9219   -2.0750   55.1803 C.3     1  ZINC001045463759   -0.1500
     25 C25       -11.7902   -2.9178   55.7738 C.3     1  ZINC001045463759    0.2300
     26 F26       -11.2761   -2.5269   57.0148 F       1  ZINC001045463759   -0.1400
     27 F27       -10.8640   -3.4734   54.8846 F       1  ZINC001045463759   -0.1500
     28 H28       -13.4493   -1.6983   57.6712 H       1  ZINC001045463759    0.4000
     29 H29       -15.8734   -0.8423   58.7587 H       1  ZINC001045463759    0.0700
     30 H30       -16.6038   -2.3836   58.2497 H       1  ZINC001045463759    0.0800
     31 H31       -17.7475   -1.4758   60.2538 H       1  ZINC001045463759    0.0700
     32 H32       -16.9311   -3.0131   60.6256 H       1  ZINC001045463759    0.0700
     33 H33       -15.8160   -0.2263   61.1794 H       1  ZINC001045463759    0.0700
     34 H34       -16.5054   -1.3287   62.3948 H       1  ZINC001045463759    0.0700
     35 H35       -14.0297   -1.4662   62.3711 H       1  ZINC001045463759    0.0700
     36 H36       -14.7600   -3.0075   61.8621 H       1  ZINC001045463759    0.0700
     37 H37       -12.4932   -3.5100   60.3519 H       1  ZINC001045463759    0.4100
     38 H38       -10.0837   -3.1811   59.6232 H       1  ZINC001045463759    0.1400
     39 H39        -8.0863   -1.7655   60.0272 H       1  ZINC001045463759    0.1700
     40 H40       -10.9239    2.2367   61.5791 H       1  ZINC001045463759    0.1300
     41 H41       -11.4466    2.1653   64.0605 H       1  ZINC001045463759    0.1000
     42 H42       -10.9423    0.3920   64.1155 H       1  ZINC001045463759    0.1100
     43 H43        -8.6171    1.0289   63.3269 H       1  ZINC001045463759    0.1000
     44 H44        -9.1213    2.8020   63.2719 H       1  ZINC001045463759    0.1000
     45 H45       -12.9444   -1.9539   54.0974 H       1  ZINC001045463759    0.1400
     46 H46       -13.2658   -1.2163   55.7569 H       1  ZINC001045463759    0.1300
@<TRIPOS>BOND
     1     1     2    2
     2     2     3   am
     3     2    22    1
     4     3     4    1
     5     3    28    1
     6     4     5    1
     7     4    10    1
     8     4     6    1
     9     6     7    1
    10     6    29    1
    11     6    30    1
    12     7     8    1
    13     7    31    1
    14     7    32    1
    15     8     9    1
    16     8    33    1
    17     8    34    1
    18     9    10    1
    19     9    35    1
    20     9    36    1
    21    10    11    1
    22    10    12    1
    23    12    13    1
    24    12    37    1
    25    13    21   ar
    26    13    14   ar
    27    14    15   ar
    28    14    38    1
    29    15    16   ar
    30    15    39    1
    31    16    17   ar
    32    17    18    1
    33    17    21   ar
    34    18    20    1
    35    18    19    1
    36    18    40    1
    37    19    20    1
    38    19    41    1
    39    19    42    1
    40    20    43    1
    41    20    44    1
    42    22    23    1
    43    22    25    1
    44    22    24    1
    45    24    25    1
    46    24    45    1
    47    24    46    1
    48    25    26    1
    49    25    27    1
@<TRIPOS>SUBSTRUCTURE
     1 ZINC001045463759        1 TEMP              0 ****  ****    0 ROOT


##########                                Name:    ZINC001217683559
##########                DOCK_Rotatable_Bonds:                   3
##########                         Heavy_Atoms:                  25
##########                    Molecular_Weight:             397.234
##########                DOCK_Rotatable_Bonds:                   3
##########                       Formal_Charge:          0.00999987
##########                     HBond_Acceptors:                   7
##########                        HBond_Donors:                   0
##########                         Heavy_Atoms:                  25
##########                          Grid_Score:          -26.576265
##########                     Grid_vdw_energy:          -25.093676
##########                      Grid_es_energy:           -1.482590
##########           Internal_energy_repulsive:           30.643278

@<TRIPOS>MOLECULE
ZINC001217683559
 38 42 1 0 0
SMALL
USER_CHARGES


@<TRIPOS>ATOM
      1 Br1       -13.1503    2.8726   49.4256 Br      1  ZINC001217683559    0.0100
      2 C2        -13.7737    1.1951   48.8145 C.ar    1  ZINC001217683559   -0.1200
      3 C3        -14.2453    1.0496   47.5196 C.ar    1  ZINC001217683559   -0.0500
      4 C4        -14.6925   -0.1992   47.1148 C.ar    1  ZINC001217683559   -0.1500
      5 C5        -14.6555   -1.2552   48.0075 C.ar    1  ZINC001217683559    0.1200
      6 N6        -14.2026   -1.0894   49.2331 N.ar    1  ZINC001217683559   -0.4400
      7 C7        -13.7599    0.0861   49.6581 C.ar    1  ZINC001217683559    0.2200
      8 C8        -13.2585    0.2251   51.0488 C.2     1  ZINC001217683559    0.2100
      9 N9        -12.9227    1.3409   51.6432 N.2     1  ZINC001217683559   -0.3300
     10 O10       -12.5528    1.1202   52.7769 O.3     1  ZINC001217683559    0.1000
     11 C11       -12.6162   -0.1965   53.0301 C.2     1  ZINC001217683559    0.2300
     12 C12       -12.2527   -0.8682   54.2948 C.2     1  ZINC001217683559   -0.0600
     13 C13       -11.8184   -0.1315   55.3604 C.2     1  ZINC001217683559    0.1800
     14 N14       -11.4827   -0.7401   56.5248 N.pl3   1  ZINC001217683559   -0.2900
     15 N15       -11.0166   -0.2586   57.7567 N.2     1  ZINC001217683559   -0.3300
     16 C16       -10.8523   -1.2984   58.5397 C.2     1  ZINC001217683559    0.2800
     17 C17       -10.3635   -1.2438   59.9641 C.3     1  ZINC001217683559   -0.0300
     18 C18        -8.8980   -0.7964   60.0958 C.3     1  ZINC001217683559   -0.1200
     19 C19        -9.3392    0.0187   61.3229 C.3     1  ZINC001217683559   -0.1400
     20 C20       -10.7432    0.0541   60.6964 C.3     1  ZINC001217683559   -0.1200
     21 N21       -11.1827   -2.4043   57.8875 N.2     1  ZINC001217683559   -0.5300
     22 C22       -11.5715   -2.0980   56.6554 C.2     1  ZINC001217683559    0.2900
     23 C23       -12.0166   -2.8809   55.5724 C.2     1  ZINC001217683559   -0.1000
     24 C24       -12.3591   -2.2746   54.4060 C.2     1  ZINC001217683559   -0.0200
     25 N25       -13.0709   -0.7756   51.9342 N.2     1  ZINC001217683559   -0.4300
     26 H26       -14.2644    1.8898   46.8413 H       1  ZINC001217683559    0.1600
     27 H27       -15.0665   -0.3458   46.1122 H       1  ZINC001217683559    0.1500
     28 H28       -15.0031   -2.2290   47.6954 H       1  ZINC001217683559    0.1800
     29 H29       -11.7418    0.9423   55.2746 H       1  ZINC001217683559    0.1900
     30 H30       -10.5979   -2.1472   60.5271 H       1  ZINC001217683559    0.1200
     31 H31        -8.2131   -1.6099   60.3353 H       1  ZINC001217683559    0.0700
     32 H32        -8.5527   -0.1819   59.2645 H       1  ZINC001217683559    0.1000
     33 H33        -9.2923   -0.5396   62.2579 H       1  ZINC001217683559    0.0800
     34 H34        -8.8659    0.9983   61.3894 H       1  ZINC001217683559    0.0800
     35 H35       -10.9024    0.9013   60.0292 H       1  ZINC001217683559    0.0900
     36 H36       -11.5479   -0.0725   61.4206 H       1  ZINC001217683559    0.0700
     37 H37       -12.0885   -3.9541   55.6697 H       1  ZINC001217683559    0.1700
     38 H38       -12.7020   -2.8624   53.5673 H       1  ZINC001217683559    0.1700
@<TRIPOS>BOND
     1     1     2    1
     2     2     7   ar
     3     2     3   ar
     4     3     4   ar
     5     3    26    1
     6     4     5   ar
     7     4    27    1
     8     5     6   ar
     9     5    28    1
    10     6     7   ar
    11     7     8    1
    12     8    25    1
    13     8     9    2
    14     9    10    1
    15    10    11    1
    16    11    12    1
    17    11    25    2
    18    12    24    1
    19    12    13    2
    20    13    14    1
    21    13    29    1
    22    14    22    1
    23    14    15    1
    24    15    16    2
    25    16    17    1
    26    16    21    1
    27    17    20    1
    28    17    18    1
    29    17    30    1
    30    18    19    1
    31    18    31    1
    32    18    32    1
    33    19    20    1
    34    19    33    1
    35    19    34    1
    36    20    35    1
    37    20    36    1
    38    21    22    2
    39    22    23    1
    40    23    24    2
    41    23    37    1
    42    24    38    1
@<TRIPOS>SUBSTRUCTURE
     1 ZINC001217683559        1 TEMP              0 ****  ****    0 ROOT


##########                                Name:    ZINC000364058410
##########                DOCK_Rotatable_Bonds:                   5
##########                         Heavy_Atoms:                  25
##########                    Molecular_Weight:             358.464
##########                DOCK_Rotatable_Bonds:                   5
##########                       Formal_Charge:           0.0100002
##########                     HBond_Acceptors:                   7
##########                        HBond_Donors:                   0
##########                         Heavy_Atoms:                  25
##########                          Grid_Score:          -26.573694
##########                     Grid_vdw_energy:          -25.850597
##########                      Grid_es_energy:           -0.723097
##########           Internal_energy_repulsive:           61.057171

@<TRIPOS>MOLECULE
ZINC000364058410
 47 50 1 0 0
SMALL
USER_CHARGES


@<TRIPOS>ATOM
      1 C1         -8.7331    0.1927   65.1883 C.3     1  ZINC000364058410   -0.0700
      2 C2         -9.1771   -0.0483   63.7684 C.2     1  ZINC000364058410   -0.2500
      3 C3         -8.3978   -0.4923   62.7552 C.2     1  ZINC000364058410    0.0800
      4 N4         -9.1676   -0.5746   61.6499 N.pl3   1  ZINC000364058410   -0.3600
      5 C5         -8.7268   -1.0125   60.3232 C.3     1  ZINC000364058410    0.1300
      6 C6         -9.8581   -1.5902   59.4536 C.3     1  ZINC000364058410    0.1100
      7 N7        -10.0473   -0.2120   58.9609 N.am    1  ZINC000364058410   -0.6500
      8 C8        -11.0818    0.4663   58.4262 C.2     1  ZINC000364058410    0.5600
      9 O9        -10.9434    1.6268   58.1023 O.2     1  ZINC000364058410   -0.5000
     10 C10       -12.4106   -0.2171   58.2308 C.3     1  ZINC000364058410    0.1400
     11 H11       -12.4757   -1.0843   58.8880 H       1  ZINC000364058410    0.0900
     12 C12       -13.5440    0.7606   58.5570 C.3     1  ZINC000364058410   -0.1200
     13 C13       -14.8874    0.1075   58.2242 C.3     1  ZINC000364058410   -0.1200
     14 C14       -14.9432   -0.2152   56.7292 C.3     1  ZINC000364058410   -0.1400
     15 C15       -13.8257   -1.2041   56.3823 C.3     1  ZINC000364058410    0.1000
     16 N16       -12.5419   -0.6482   56.8323 N.am    1  ZINC000364058410   -0.6000
     17 C17       -11.5067   -0.5313   55.9772 C.2     1  ZINC000364058410    0.5900
     18 O18       -10.4487   -0.0693   56.3622 O.2     1  ZINC000364058410   -0.4900
     19 C19       -11.6552   -0.9606   54.5835 C.2     1  ZINC000364058410   -0.2600
     20 C20       -11.6518   -2.2560   54.1485 C.2     1  ZINC000364058410   -0.0600
     21 C21       -11.8097   -2.3730   52.7879 C.2     1  ZINC000364058410   -0.1400
     22 C22       -11.9382   -1.2150   52.1297 C.2     1  ZINC000364058410   -0.2400
     23 S23       -11.8739    0.1083   53.2047 S.3     1  ZINC000364058410    0.2100
     24 C24        -8.6485    0.1252   59.2891 C.3     1  ZINC000364058410    0.0900
     25 N25       -10.4628   -0.1678   61.9953 N.2     1  ZINC000364058410   -0.3000
     26 C26       -10.4687    0.1416   63.2666 C.2     1  ZINC000364058410    0.0500
     27 H27        -8.8621   -0.7204   65.7693 H       1  ZINC000364058410    0.0600
     28 H28        -7.6826    0.4832   65.1962 H       1  ZINC000364058410    0.0600
     29 H29        -9.3339    0.9899   65.6264 H       1  ZINC000364058410    0.0600
     30 H30        -7.3478   -0.7368   62.8196 H       1  ZINC000364058410    0.1700
     31 H31        -7.8342   -1.6372   60.3568 H       1  ZINC000364058410    0.1300
     32 H32        -9.5129   -2.2865   58.6892 H       1  ZINC000364058410    0.1100
     33 H33       -10.7027   -1.9714   60.0276 H       1  ZINC000364058410    0.0900
     34 H34       -13.5141    1.0114   59.6173 H       1  ZINC000364058410    0.0800
     35 H35       -13.4237    1.6676   57.9646 H       1  ZINC000364058410    0.0800
     36 H36       -14.9961   -0.8125   58.7986 H       1  ZINC000364058410    0.0700
     37 H37       -15.6968    0.7919   58.4784 H       1  ZINC000364058410    0.0800
     38 H38       -15.9092   -0.6590   56.4886 H       1  ZINC000364058410    0.0800
     39 H39       -14.8097    0.7010   56.1540 H       1  ZINC000364058410    0.0700
     40 H40       -14.0077   -2.1528   56.8871 H       1  ZINC000364058410    0.0800
     41 H41       -13.7984   -1.3609   55.3040 H       1  ZINC000364058410    0.0900
     42 H42       -11.5361   -3.1035   54.8079 H       1  ZINC000364058410    0.1500
     43 H43       -11.8284   -3.3296   52.2868 H       1  ZINC000364058410    0.1500
     44 H44       -12.0693   -1.1297   51.0610 H       1  ZINC000364058410    0.1700
     45 H45        -8.5272    1.1138   59.7321 H       1  ZINC000364058410    0.0900
     46 H46        -7.9479   -0.0670   58.4765 H       1  ZINC000364058410    0.1100
     47 H47       -11.3218    0.4907   63.8294 H       1  ZINC000364058410    0.1800
@<TRIPOS>BOND
     1     1     2    1
     2     1    27    1
     3     1    28    1
     4     1    29    1
     5     2    26    1
     6     2     3    2
     7     3     4    1
     8     3    30    1
     9     4     5    1
    10     4    25    1
    11     5    24    1
    12     5     6    1
    13     5    31    1
    14     6     7    1
    15     6    32    1
    16     6    33    1
    17     7     8   am
    18     7    24    1
    19     8     9    2
    20     8    10    1
    21    10    11    1
    22    10    16    1
    23    10    12    1
    24    12    13    1
    25    12    34    1
    26    12    35    1
    27    13    14    1
    28    13    36    1
    29    13    37    1
    30    14    15    1
    31    14    38    1
    32    14    39    1
    33    15    16    1
    34    15    40    1
    35    15    41    1
    36    16    17   am
    37    17    18    2
    38    17    19    1
    39    19    23    1
    40    19    20    2
    41    20    21    1
    42    20    42    1
    43    21    22    2
    44    21    43    1
    45    22    23    1
    46    22    44    1
    47    24    45    1
    48    24    46    1
    49    25    26    2
    50    26    47    1
@<TRIPOS>SUBSTRUCTURE
     1 ZINC000364058410        1 TEMP              0 ****  ****    0 ROOT


##########                                Name:    ZINC001248546333
##########                DOCK_Rotatable_Bonds:                   6
##########                         Heavy_Atoms:                  27
##########                    Molecular_Weight:             378.397
##########                DOCK_Rotatable_Bonds:                   6
##########                       Formal_Charge:         3.94881e-07
##########                     HBond_Acceptors:                   8
##########                        HBond_Donors:                   1
##########                         Heavy_Atoms:                  27
##########                          Grid_Score:          -26.570662
##########                     Grid_vdw_energy:          -25.455868
##########                      Grid_es_energy:           -1.114793
##########           Internal_energy_repulsive:            9.763517

@<TRIPOS>MOLECULE
ZINC001248546333
 48 50 1 0 0
SMALL
USER_CHARGES


@<TRIPOS>ATOM
      1 C1         -7.3020    4.7858   51.4128 C.3     1  ZINC001248546333   -0.1200
      2 C2         -6.7511    4.2155   52.6944 C.ar    1  ZINC001248546333   -0.0800
      3 C3         -5.3853    4.2021   52.9128 C.ar    1  ZINC001248546333   -0.1200
      4 C4         -4.8715    3.6804   54.0868 C.ar    1  ZINC001248546333   -0.1100
      5 C5         -5.7198    3.1703   55.0478 C.ar    1  ZINC001248546333   -0.1100
      6 C6         -7.0987    3.1814   54.8339 C.ar    1  ZINC001248546333   -0.0600
      7 C7         -8.0134    2.6365   55.8593 C.2     1  ZINC001248546333   -0.0600
      8 C8         -9.0305    1.9169   55.4513 C.2     1  ZINC001248546333   -0.1700
      9 C9        -10.0473    1.3171   56.3824 C.3     1  ZINC001248546333    0.1500
     10 N10        -9.5671    1.4421   57.7661 N.am    1  ZINC001248546333   -0.6300
     11 C11        -9.6765    0.4225   58.6408 C.2     1  ZINC001248546333    0.7200
     12 O12       -10.1806   -0.6271   58.2909 O.2     1  ZINC001248546333   -0.5800
     13 N13        -9.2271    0.5665   59.9033 N.am    1  ZINC001248546333   -0.7500
     14 C14        -9.3461   -0.5418   60.8539 C.3     1  ZINC001248546333    0.2000
     15 C15        -9.4223    0.0052   62.2561 C.2     1  ZINC001248546333    0.0700
     16 C16        -8.3831    0.1644   63.1080 C.2     1  ZINC001248546333   -0.2000
     17 C17        -8.8820    0.6994   64.3002 C.2     1  ZINC001248546333   -0.0200
     18 C18        -8.0709    1.0379   65.5244 C.3     1  ZINC001248546333    0.5600
     19 F19        -6.8118    1.5067   65.1345 F       1  ZINC001248546333   -0.1700
     20 F20        -8.7296    2.0281   66.2611 F       1  ZINC001248546333   -0.1700
     21 F21        -7.9183   -0.1068   66.3140 F       1  ZINC001248546333   -0.1600
     22 N22       -10.1742    0.8558   64.1688 N.2     1  ZINC001248546333   -0.2200
     23 N23       -10.5383    0.4296   62.8849 N.pl3   1  ZINC001248546333   -0.3400
     24 C24       -11.8929    0.4351   62.3268 C.3     1  ZINC001248546333    0.0900
     25 C25        -8.9620    2.7266   58.1585 C.3     1  ZINC001248546333    0.1300
     26 C26        -7.7123    2.9392   57.2971 C.3     1  ZINC001248546333   -0.1000
     27 C27        -7.6106    3.7133   53.6500 C.ar    1  ZINC001248546333   -0.1100
     28 H28        -7.4912    5.8515   51.5411 H       1  ZINC001248546333    0.0700
     29 H29        -6.5797    4.6390   50.6098 H       1  ZINC001248546333    0.0700
     30 H30        -8.2336    4.2791   51.1606 H       1  ZINC001248546333    0.0700
     31 H31        -4.7170    4.6001   52.1636 H       1  ZINC001248546333    0.1200
     32 H32        -3.8041    3.6720   54.2510 H       1  ZINC001248546333    0.1200
     33 H33        -5.3175    2.7630   55.9636 H       1  ZINC001248546333    0.1200
     34 H34        -9.1441    1.7462   54.3910 H       1  ZINC001248546333    0.1200
     35 H35       -10.9946    1.8455   56.2764 H       1  ZINC001248546333    0.0800
     36 H36       -10.1873    0.2638   56.1391 H       1  ZINC001248546333    0.0800
     37 H37        -8.8249    1.4039   60.1824 H       1  ZINC001248546333    0.4000
     38 H38       -10.2496   -1.1115   60.6366 H       1  ZINC001248546333    0.1000
     39 H39        -8.4761   -1.1923   60.7644 H       1  ZINC001248546333    0.0900
     40 H40        -7.3510   -0.0790   62.9036 H       1  ZINC001248546333    0.1700
     41 H41       -12.0774    1.3877   61.8301 H       1  ZINC001248546333    0.0900
     42 H42       -11.9918   -0.3760   61.6055 H       1  ZINC001248546333    0.1000
     43 H43       -12.6171    0.2976   63.1297 H       1  ZINC001248546333    0.1000
     44 H44        -9.6726    3.5356   57.9895 H       1  ZINC001248546333    0.0700
     45 H45        -8.6814    2.6955   59.2113 H       1  ZINC001248546333    0.1000
     46 H46        -6.9155    2.2845   57.6502 H       1  ZINC001248546333    0.0800
     47 H47        -7.3877    3.9762   57.3827 H       1  ZINC001248546333    0.0900
     48 H48        -8.6769    3.7247   53.4784 H       1  ZINC001248546333    0.1200
@<TRIPOS>BOND
     1     1     2    1
     2     1    28    1
     3     1    29    1
     4     1    30    1
     5     2    27   ar
     6     2     3   ar
     7     3     4   ar
     8     3    31    1
     9     4     5   ar
    10     4    32    1
    11     5     6   ar
    12     5    33    1
    13     6     7    1
    14     6    27   ar
    15     7    26    1
    16     7     8    2
    17     8     9    1
    18     8    34    1
    19     9    10    1
    20     9    35    1
    21     9    36    1
    22    10    11   am
    23    10    25    1
    24    11    12    2
    25    11    13   am
    26    13    14    1
    27    13    37    1
    28    14    15    1
    29    14    38    1
    30    14    39    1
    31    15    23    1
    32    15    16    2
    33    16    17    1
    34    16    40    1
    35    17    18    1
    36    17    22    2
    37    18    19    1
    38    18    20    1
    39    18    21    1
    40    22    23    1
    41    23    24    1
    42    24    41    1
    43    24    42    1
    44    24    43    1
    45    25    26    1
    46    25    44    1
    47    25    45    1
    48    26    46    1
    49    26    47    1
    50    27    48    1
@<TRIPOS>SUBSTRUCTURE
     1 ZINC001248546333        1 TEMP              0 ****  ****    0 ROOT


##########                                Name:    ZINC000942661662
##########                DOCK_Rotatable_Bonds:                   6
##########                         Heavy_Atoms:                  25
##########                    Molecular_Weight:             343.426
##########                DOCK_Rotatable_Bonds:                   6
##########                       Formal_Charge:           0.0399997
##########                     HBond_Acceptors:                   6
##########                        HBond_Donors:                   1
##########                         Heavy_Atoms:                  25
##########                          Grid_Score:          -26.557741
##########                     Grid_vdw_energy:          -26.125601
##########                      Grid_es_energy:           -0.432141
##########           Internal_energy_repulsive:           21.933893

@<TRIPOS>MOLECULE
ZINC000942661662
 50 52 1 0 0
SMALL
USER_CHARGES


@<TRIPOS>ATOM
      1 C1         -3.4572    2.8907   50.4392 C.3     1  ZINC000942661662   -0.1700
      2 C2         -3.9595    1.9013   51.4926 C.3     1  ZINC000942661662    0.1000
      3 N3         -5.1836    2.4217   52.1068 N.am    1  ZINC000942661662   -0.6000
      4 C4         -6.3807    2.1704   51.5410 C.2     1  ZINC000942661662    0.6000
      5 O5         -6.4448    1.5119   50.5205 O.2     1  ZINC000942661662   -0.5200
      6 C6         -7.6122    2.6937   52.1587 C.2     1  ZINC000942661662   -0.2400
      7 C7         -8.5026    3.5693   51.6095 C.2     1  ZINC000942661662    0.0700
      8 C8         -8.4013    4.1854   50.2380 C.3     1  ZINC000942661662   -0.0900
      9 O9         -9.4800    3.7876   52.4945 O.3     1  ZINC000942661662   -0.1700
     10 C10        -9.2729    3.0861   53.6198 C.2     1  ZINC000942661662   -0.0300
     11 C11        -8.1411    2.3765   53.4933 C.2     1  ZINC000942661662   -0.1900
     12 C12        -5.1063    3.2150   53.3360 C.3     1  ZINC000942661662    0.1400
     13 H13        -5.7326    2.7836   54.1169 H       1  ZINC000942661662    0.1100
     14 C14        -5.4907    4.6941   53.0684 C.3     1  ZINC000942661662   -0.1400
     15 C15        -4.7316    5.4544   54.1763 C.3     1  ZINC000942661662    0.1000
     16 N16        -3.6209    4.5956   54.6125 N.am    1  ZINC000942661662   -0.6200
     17 C17        -2.7330    4.8918   55.5823 C.2     1  ZINC000942661662    0.6100
     18 O18        -2.8148    5.9488   56.1798 O.2     1  ZINC000942661662   -0.5200
     19 C19        -1.6683    3.9403   55.9175 C.2     1  ZINC000942661662   -0.0600
     20 C20        -1.7566    2.9044   56.8230 C.2     1  ZINC000942661662   -0.0700
     21 C21        -2.9615    2.5390   57.6510 C.3     1  ZINC000942661662   -0.0900
     22 C22        -0.5175    2.2562   56.8277 C.2     1  ZINC000942661662   -0.2100
     23 C23         0.2881    2.8935   55.9448 C.2     1  ZINC000942661662    0.0500
     24 C24         1.7156    2.5225   55.6350 C.3     1  ZINC000942661662   -0.0900
     25 N25        -0.4009    3.9153   55.3809 N.pl3   1  ZINC000942661662   -0.5400
     26 C26        -3.6398    3.3554   53.8147 C.3     1  ZINC000942661662    0.0900
     27 H27        -2.5464    2.5036   49.9822 H       1  ZINC000942661662    0.0700
     28 H28        -4.2203    3.0235   49.6724 H       1  ZINC000942661662    0.0600
     29 H29        -3.2469    3.8498   50.9125 H       1  ZINC000942661662    0.0600
     30 H30        -4.1698    0.9423   51.0193 H       1  ZINC000942661662    0.0900
     31 H31        -3.1964    1.7685   52.2596 H       1  ZINC000942661662    0.0800
     32 H32        -8.9084    3.5469   49.5145 H       1  ZINC000942661662    0.0900
     33 H33        -8.8706    5.1692   50.2461 H       1  ZINC000942661662    0.0900
     34 H34        -7.3518    4.2857   49.9613 H       1  ZINC000942661662    0.1000
     35 H35        -9.9169    3.0884   54.4868 H       1  ZINC000942661662    0.2100
     36 H36        -7.7038    1.7137   54.2254 H       1  ZINC000942661662    0.1600
     37 H37        -5.1501    5.0087   52.0819 H       1  ZINC000942661662    0.1000
     38 H38        -6.5665    4.8375   53.1699 H       1  ZINC000942661662    0.0900
     39 H39        -4.3418    6.3927   53.7817 H       1  ZINC000942661662    0.0700
     40 H40        -5.3993    5.6514   55.0150 H       1  ZINC000942661662    0.0700
     41 H41        -3.5761    1.8249   57.1029 H       1  ZINC000942661662    0.0700
     42 H42        -2.6350    2.0918   58.5900 H       1  ZINC000942661662    0.0600
     43 H43        -3.5449    3.4359   57.8591 H       1  ZINC000942661662    0.0800
     44 H44        -0.2502    1.3998   57.4291 H       1  ZINC000942661662    0.1400
     45 H45         1.7347    1.8072   54.8126 H       1  ZINC000942661662    0.0800
     46 H46         2.2701    3.4170   55.3514 H       1  ZINC000942661662    0.0700
     47 H47         2.1743    2.0749   56.5166 H       1  ZINC000942661662    0.0900
     48 H48        -0.0566    4.5301   54.7144 H       1  ZINC000942661662    0.4100
     49 H49        -3.3578    2.5027   54.4324 H       1  ZINC000942661662    0.0800
     50 H50        -2.9692    3.4440   52.9600 H       1  ZINC000942661662    0.1000
@<TRIPOS>BOND
     1     1     2    1
     2     1    27    1
     3     1    28    1
     4     1    29    1
     5     2     3    1
     6     2    30    1
     7     2    31    1
     8     3     4   am
     9     3    12    1
    10     4     5    2
    11     4     6    1
    12     6    11    1
    13     6     7    2
    14     7     8    1
    15     7     9    1
    16     8    32    1
    17     8    33    1
    18     8    34    1
    19     9    10    1
    20    10    11    2
    21    10    35    1
    22    11    36    1
    23    12    13    1
    24    12    26    1
    25    12    14    1
    26    14    15    1
    27    14    37    1
    28    14    38    1
    29    15    16    1
    30    15    39    1
    31    15    40    1
    32    16    17   am
    33    16    26    1
    34    17    18    2
    35    17    19    1
    36    19    25    1
    37    19    20    2
    38    20    21    1
    39    20    22    1
    40    21    41    1
    41    21    42    1
    42    21    43    1
    43    22    23    2
    44    22    44    1
    45    23    24    1
    46    23    25    1
    47    24    45    1
    48    24    46    1
    49    24    47    1
    50    25    48    1
    51    26    49    1
    52    26    50    1
@<TRIPOS>SUBSTRUCTURE
     1 ZINC000942661662        1 TEMP              0 ****  ****    0 ROOT


##########                                Name:    ZINC000013551438
##########                DOCK_Rotatable_Bonds:                   5
##########                         Heavy_Atoms:                  27
##########                    Molecular_Weight:             377.467
##########                DOCK_Rotatable_Bonds:                   5
##########                       Formal_Charge:          -0.0300005
##########                     HBond_Acceptors:                   6
##########                        HBond_Donors:                   1
##########                         Heavy_Atoms:                  27
##########                          Grid_Score:          -26.467659
##########                     Grid_vdw_energy:          -24.011730
##########                      Grid_es_energy:           -2.455930
##########           Internal_energy_repulsive:            5.292028

@<TRIPOS>MOLECULE
ZINC000013551438
 46 49 1 0 0
SMALL
USER_CHARGES


@<TRIPOS>ATOM
      1 C1        -17.4928    0.1954   61.4095 C.3     1  <0>         0.0300
      2 O2        -17.1491   -1.1806   61.5840 O.3     1  <0>        -0.3200
      3 C3        -16.2508   -1.7082   60.7100 C.ar    1  <0>         0.1000
      4 C4        -16.5965   -2.8195   59.9462 C.ar    1  <0>        -0.1800
      5 C5        -15.6981   -3.3657   59.0567 C.ar    1  <0>        -0.0900
      6 C6        -14.4322   -2.8068   58.9150 C.ar    1  <0>         0.0700
      7 C7        -14.0816   -1.6845   59.6847 C.ar    1  <0>        -0.0400
      8 C8        -15.0004   -1.1359   60.5789 C.ar    1  <0>        -0.1100
      9 C9        -12.7009   -1.3453   59.3052 C.2     1  <0>        -0.1200
     10 C10       -11.8831   -0.2313   59.8447 C.2     1  <0>         0.1700
     11 C11       -11.7676    0.9584   59.2251 C.2     1  <0>        -0.3000
     12 S12       -10.7140    1.9801   60.1991 S.3     1  <0>         0.2500
     13 C13       -10.5268    0.7232   61.3419 C.2     1  <0>         0.2400
     14 N14        -9.7594    0.8095   62.4959 N.am    1  <0>        -0.6200
     15 C15       -10.3540    0.7733   63.7048 C.2     1  <0>         0.5600
     16 O16       -11.5620    0.6634   63.7850 O.2     1  <0>        -0.5000
     17 C17        -9.5374    0.8669   64.9331 C.ar    1  <0>        -0.1400
     18 C18        -8.2052    0.4497   64.9227 C.ar    1  <0>        -0.0800
     19 C19        -7.4483    0.5404   66.0725 C.ar    1  <0>        -0.1300
     20 C20        -8.0068    1.0433   67.2342 C.ar    1  <0>        -0.0800
     21 C21        -9.3267    1.4580   67.2515 C.ar    1  <0>        -0.1300
     22 C22       -10.0931    1.3783   66.1071 C.ar    1  <0>        -0.0500
     23 N23       -11.2065   -0.3189   60.9828 N.2     1  <0>        -0.5000
     24 C24       -12.3207   -2.2469   58.3689 C.2     1  <0>         0.1300
     25 C25       -10.9733   -2.2808   57.6946 C.3     1  <0>        -0.0900
     26 N26       -13.3436   -3.1225   58.1283 N.pl3   1  <0>        -0.4800
     27 C27       -13.2908   -4.2338   57.1752 C.3     1  <0>         0.0800
     28 H28       -17.9278    0.3388   60.4204 H       1  <0>         0.0500
     29 H29       -18.2162    0.4886   62.1705 H       1  <0>         0.1000
     30 H30       -16.5968    0.8087   61.5047 H       1  <0>         0.0500
     31 H31       -17.5779   -3.2576   60.0527 H       1  <0>         0.1300
     32 H32       -15.9764   -4.2283   58.4693 H       1  <0>         0.1200
     33 H33       -14.7330   -0.2735   61.1715 H       1  <0>         0.1300
     34 H34       -12.2385    1.2373   58.2941 H       1  <0>         0.1800
     35 H35        -8.7954    0.8959   62.4319 H       1  <0>         0.4200
     36 H36        -7.7681    0.0567   64.0167 H       1  <0>         0.1300
     37 H37        -6.4177    0.2176   66.0660 H       1  <0>         0.1300
     38 H38        -7.4099    1.1121   68.1316 H       1  <0>         0.1300
     39 H39        -9.7567    1.8494   68.1617 H       1  <0>         0.1300
     40 H40       -11.1230    1.7027   66.1219 H       1  <0>         0.1400
     41 H41       -10.3211   -2.9778   58.2208 H       1  <0>         0.0800
     42 H42       -11.0926   -2.6049   56.6607 H       1  <0>         0.0700
     43 H43       -10.5319   -1.2844   57.7144 H       1  <0>         0.0800
     44 H44       -12.9228   -5.1275   57.6791 H       1  <0>         0.0700
     45 H45       -14.2897   -4.4235   56.7824 H       1  <0>         0.0800
     46 H46       -12.6204   -3.9773   56.3549 H       1  <0>         0.0800
@<TRIPOS>BOND
     1     1     2    1
     2     1    28    1
     3     1    29    1
     4     1    30    1
     5     2     3    1
     6     3     8   ar
     7     3     4   ar
     8     4     5   ar
     9     4    31    1
    10     5     6   ar
    11     5    32    1
    12     6    26    1
    13     6     7   ar
    14     7     8   ar
    15     7     9    1
    16     8    33    1
    17     9    10    1
    18     9    24    2
    19    10    23    1
    20    10    11    2
    21    11    12    1
    22    11    34    1
    23    12    13    1
    24    13    14    1
    25    13    23    2
    26    14    15   am
    27    14    35    1
    28    15    16    2
    29    15    17    1
    30    17    22   ar
    31    17    18   ar
    32    18    19   ar
    33    18    36    1
    34    19    20   ar
    35    19    37    1
    36    20    21   ar
    37    20    38    1
    38    21    22   ar
    39    21    39    1
    40    22    40    1
    41    24    25    1
    42    24    26    1
    43    25    41    1
    44    25    42    1
    45    25    43    1
    46    26    27    1
    47    27    44    1
    48    27    45    1
    49    27    46    1
@<TRIPOS>SUBSTRUCTURE
     1 <0>         1 TEMP              0 ****  ****    0 ROOT


##########                                Name:      oleObject5.pdb
##########                DOCK_Rotatable_Bonds:                   5
##########                         Heavy_Atoms:                  24
##########                    Molecular_Weight:             323.438
##########                DOCK_Rotatable_Bonds:                   5
##########                       Formal_Charge:         0.000200074
##########                     HBond_Acceptors:                   4
##########                        HBond_Donors:                   2
##########                         Heavy_Atoms:                  24
##########                          Grid_Score:          -26.407364
##########                     Grid_vdw_energy:          -26.302517
##########                      Grid_es_energy:           -0.104848
##########           Internal_energy_repulsive:           11.391211

@<TRIPOS>MOLECULE
oleObject5.pdb
 49 51 1 0 0
SMALL
NO_CHARGES


@<TRIPOS>ATOM
      1 C         -13.5436   -4.4768   57.0824 C.3     1  UNL        -0.0394
      2 C         -14.1183   -3.1774   57.6380 C.ar    1  UNL        -0.0456
      3 C         -15.3966   -3.2217   58.2286 C.ar    1  UNL        -0.0590
      4 C         -15.9942   -2.0611   58.7399 C.ar    1  UNL        -0.0620
      5 C         -15.3182   -0.8377   58.6598 C.ar    1  UNL        -0.0619
      6 C         -14.0464   -0.7800   58.0721 C.ar    1  UNL        -0.0565
      7 C         -13.4260   -1.9404   57.5623 C.ar    1  UNL        -0.0188
      8 C         -12.0460   -1.8005   56.9054 C.3     1  UNL         0.0906
      9 N         -12.2061   -1.2812   55.5357 N.am    1  UNL        -0.3025
     10 C         -11.9095   -2.0248   54.4076 C.2     1  UNL         0.2156
     11 O         -11.6528   -3.2150   54.4665 O.2     1  UNL        -0.2774
     12 C         -12.1544   -1.2764   53.0836 C.3     1  UNL         0.0382
     13 C         -11.1894   -1.7614   51.9687 C.3     1  UNL        -0.0292
     14 C          -9.7550   -1.2311   52.1831 C.3     1  UNL        -0.0041
     15 N          -9.7496    0.2395   52.2663 N.4     1  UNL        -0.3167
     16 C         -10.5960    0.7672   53.3511 C.3     1  UNL        -0.0041
     17 C         -12.0577    0.2668   53.2325 C.3     1  UNL        -0.0292
     18 C         -11.0895   -0.9505   57.7594 C.ar    1  UNL         0.0681
     19 N         -10.7491    0.2633   57.2619 N.ar    1  UNL        -0.2587
     20 C          -9.9224    1.0586   57.9664 C.ar    1  UNL         0.0272
     21 C          -9.3925    0.6860   59.2103 C.ar    1  UNL        -0.0435
     22 C          -9.7398   -0.5646   59.7405 C.ar    1  UNL        -0.0559
     23 C         -10.6030   -1.4043   59.0113 C.ar    1  UNL        -0.0272
     24 C         -10.9877   -2.7595   59.5913 C.3     1  UNL        -0.0379
     25 H         -14.1589   -5.3414   57.3607 H       1  UNL         0.0280
     26 H         -12.5342   -4.6721   57.4607 H       1  UNL         0.0280
     27 H         -13.5017   -4.4529   55.9881 H       1  UNL         0.0280
     28 H         -15.9364   -4.1628   58.2882 H       1  UNL         0.0626
     29 H         -16.9810   -2.1099   59.1912 H       1  UNL         0.0623
     30 H         -15.7796    0.0658   59.0480 H       1  UNL         0.0623
     31 H         -13.5436    0.1803   58.0076 H       1  UNL         0.0627
     32 H         -11.5828   -2.7874   56.8138 H       1  UNL         0.0624
     33 H         -12.8893   -0.5434   55.4248 H       1  UNL         0.1504
     34 H         -13.1799   -1.5204   52.7768 H       1  UNL         0.0402
     35 H         -11.5561   -1.4037   50.9979 H       1  UNL         0.0288
     36 H         -11.1767   -2.8568   51.9106 H       1  UNL         0.0288
     37 H          -9.1174   -1.5576   51.3518 H       1  UNL         0.0428
     38 H          -9.3435   -1.6570   53.1076 H       1  UNL         0.0428
     39 H         -10.0759    0.6198   51.3785 H       1  UNL         0.1222
     40 H         -10.5852    1.8642   53.3270 H       1  UNL         0.0428
     41 H         -10.1799    0.4576   54.3179 H       1  UNL         0.0428
     42 H         -12.5139    0.7346   52.3505 H       1  UNL         0.0288
     43 H         -12.6405    0.6020   54.1002 H       1  UNL         0.0288
     44 H          -9.6785    2.0218   57.5202 H       1  UNL         0.0840
     45 H          -8.7285    1.3534   59.7517 H       1  UNL         0.0639
     46 H          -9.3448   -0.8747   60.7038 H       1  UNL         0.0627
     47 H         -10.5139   -2.9312   60.5659 H       1  UNL         0.0280
     48 H         -10.6749   -3.5764   58.9295 H       1  UNL         0.0280
     49 H         -12.0719   -2.8314   59.7402 H       1  UNL         0.0280
@<TRIPOS>BOND
     1     1     2    1
     2     1    25    1
     3     1    26    1
     4     1    27    1
     5     2     3   ar
     6     2     7   ar
     7     3     4   ar
     8     3    28    1
     9     4     5   ar
    10     4    29    1
    11     5     6   ar
    12     5    30    1
    13     6     7   ar
    14     6    31    1
    15     7     8    1
    16     8     9    1
    17     8    18    1
    18     8    32    1
    19     9    10   am
    20     9    33    1
    21    10    11    2
    22    10    12    1
    23    12    13    1
    24    12    17    1
    25    12    34    1
    26    13    14    1
    27    13    35    1
    28    13    36    1
    29    14    15    1
    30    14    37    1
    31    14    38    1
    32    15    16    1
    33    15    39    1
    34    16    17    1
    35    16    40    1
    36    16    41    1
    37    17    42    1
    38    17    43    1
    39    18    19   ar
    40    18    23   ar
    41    19    20   ar
    42    20    21   ar
    43    20    44    1
    44    21    22   ar
    45    21    45    1
    46    22    23   ar
    47    22    46    1
    48    23    24    1
    49    24    47    1
    50    24    48    1
    51    24    49    1
@<TRIPOS>SUBSTRUCTURE
     1 UNL         1 TEMP              0 ****  ****    0 ROOT


##########                                Name:    ZINC000560467340
##########                DOCK_Rotatable_Bonds:                   7
##########                         Heavy_Atoms:                  24
##########                    Molecular_Weight:             369.481
##########                DOCK_Rotatable_Bonds:                   7
##########                       Formal_Charge:          -0.0199997
##########                     HBond_Acceptors:                   7
##########                        HBond_Donors:                   2
##########                         Heavy_Atoms:                  24
##########                          Grid_Score:          -26.403612
##########                     Grid_vdw_energy:          -26.023699
##########                      Grid_es_energy:           -0.379914
##########           Internal_energy_repulsive:           18.562918

@<TRIPOS>MOLECULE
ZINC000560467340
 44 46 1 0 0
SMALL
USER_CHARGES


@<TRIPOS>ATOM
      1 O1        -11.4377   -2.4429   60.5962 O.2     1  ZINC000560467340   -0.9600
      2 S2        -10.5580   -2.0132   59.5662 S.o2    1  ZINC000560467340    2.7100
      3 O3         -9.4732   -2.7992   59.0924 O.2     1  ZINC000560467340   -0.9500
      4 N4        -11.5061   -1.6823   58.2493 N.am    1  ZINC000560467340   -1.0900
      5 C5        -12.2217   -2.7658   57.5711 C.3     1  ZINC000560467340    0.1400
      6 C6        -13.6896   -2.3734   57.3913 C.3     1  ZINC000560467340   -0.0500
      7 C7        -13.7966   -1.1488   56.4806 C.3     1  ZINC000560467340   -0.0700
      8 C8        -12.7516   -1.2350   55.3980 C.ar    1  ZINC000560467340   -0.0900
      9 C9        -11.6628   -0.3836   55.4197 C.ar    1  ZINC000560467340   -0.0900
     10 C10       -10.7040   -0.4618   54.4274 C.ar    1  ZINC000560467340   -0.1500
     11 C11       -10.8341   -1.3937   53.4116 C.ar    1  ZINC000560467340    0.1000
     12 F12        -9.8972   -1.4713   52.4415 F       1  ZINC000560467340   -0.1400
     13 C13       -11.9248   -2.2462   53.3913 C.ar    1  ZINC000560467340   -0.1500
     14 C14       -12.8800   -2.1694   54.3873 C.ar    1  ZINC000560467340   -0.0900
     15 C15       -14.3274   -2.0707   58.7629 C.3     1  ZINC000560467340   -0.1300
     16 C16       -15.7689   -2.6244   58.6420 C.3     1  ZINC000560467340   -0.1200
     17 C17       -15.5696   -3.9192   57.8157 C.3     1  ZINC000560467340   -0.1600
     18 C18       -14.4793   -3.5488   56.7891 C.3     1  ZINC000560467340    0.1100
     19 H19       -14.9396   -3.2463   55.8485 H       1  ZINC000560467340    0.0600
     20 O20       -13.6115   -4.6633   56.5730 O.3     1  ZINC000560467340   -0.5500
     21 C21        -9.8663   -0.4858   60.1079 C.2     1  ZINC000560467340   -0.6900
     22 C22        -9.5861    0.5126   59.2688 C.2     1  ZINC000560467340   -0.1000
     23 S23        -8.9127    1.8666   60.1669 S.3     1  ZINC000560467340    0.1500
     24 C24        -9.0539    0.9744   61.6761 C.2     1  ZINC000560467340   -0.2200
     25 C25        -9.5781   -0.2287   61.4371 C.2     1  ZINC000560467340   -0.0700
     26 H26       -11.5876   -0.7711   57.9271 H       1  ZINC000560467340    0.4200
     27 H27       -11.7709   -2.9437   56.5948 H       1  ZINC000560467340    0.0600
     28 H28       -12.1592   -3.6738   58.1710 H       1  ZINC000560467340    0.0800
     29 H29       -14.7875   -1.1183   56.0275 H       1  ZINC000560467340    0.0800
     30 H30       -13.6374   -0.2443   57.0678 H       1  ZINC000560467340    0.0800
     31 H31       -11.5615    0.3431   56.2121 H       1  ZINC000560467340    0.1300
     32 H32        -9.8537    0.2039   54.4441 H       1  ZINC000560467340    0.1400
     33 H33       -12.0276   -2.9733   52.5993 H       1  ZINC000560467340    0.1400
     34 H34       -13.7308   -2.8346   54.3718 H       1  ZINC000560467340    0.1300
     35 H35       -13.7865   -2.5854   59.5572 H       1  ZINC000560467340    0.0700
     36 H36       -14.3455   -0.9964   58.9465 H       1  ZINC000560467340    0.0800
     37 H37       -16.1787   -2.8531   59.6258 H       1  ZINC000560467340    0.0700
     38 H38       -16.4094   -1.9212   58.1096 H       1  ZINC000560467340    0.0700
     39 H39       -15.2293   -4.7322   58.4569 H       1  ZINC000560467340    0.0800
     40 H40       -16.4942   -4.1939   57.3080 H       1  ZINC000560467340    0.0700
     41 H41       -12.9370   -4.7751   57.2568 H       1  ZINC000560467340    0.3800
     42 H42        -9.7476    0.4924   58.2011 H       1  ZINC000560467340    0.1800
     43 H43        -8.7648    1.3456   62.6482 H       1  ZINC000560467340    0.1700
     44 H44        -9.7567   -0.9506   62.2204 H       1  ZINC000560467340    0.1500
@<TRIPOS>BOND
     1     1     2    2
     2     2     3    2
     3     2     4   am
     4     2    21    1
     5     4     5    1
     6     4    26    1
     7     5     6    1
     8     5    27    1
     9     5    28    1
    10     6    18    1
    11     6     7    1
    12     6    15    1
    13     7     8    1
    14     7    29    1
    15     7    30    1
    16     8    14   ar
    17     8     9   ar
    18     9    10   ar
    19     9    31    1
    20    10    11   ar
    21    10    32    1
    22    11    12    1
    23    11    13   ar
    24    13    14   ar
    25    13    33    1
    26    14    34    1
    27    15    16    1
    28    15    35    1
    29    15    36    1
    30    16    17    1
    31    16    37    1
    32    16    38    1
    33    17    18    1
    34    17    39    1
    35    17    40    1
    36    18    19    1
    37    18    20    1
    38    20    41    1
    39    21    25    1
    40    21    22    2
    41    22    23    1
    42    22    42    1
    43    23    24    1
    44    24    25    2
    45    24    43    1
    46    25    44    1
@<TRIPOS>SUBSTRUCTURE
     1 ZINC000560467340        1 TEMP              0 ****  ****    0 ROOT


##########                                Name:    ZINC000506156755
##########                DOCK_Rotatable_Bonds:                   7
##########                         Heavy_Atoms:                  30
##########                    Molecular_Weight:             400.434
##########                DOCK_Rotatable_Bonds:                   7
##########                       Formal_Charge:          -0.0200001
##########                     HBond_Acceptors:                   6
##########                        HBond_Donors:                   1
##########                         Heavy_Atoms:                  30
##########                          Grid_Score:          -26.395351
##########                     Grid_vdw_energy:          -25.391108
##########                      Grid_es_energy:           -1.004244
##########           Internal_energy_repulsive:           17.773769

@<TRIPOS>MOLECULE
ZINC000506156755
 50 53 1 0 0
SMALL
USER_CHARGES


@<TRIPOS>ATOM
      1 C1        -13.3120   -0.6747   51.9937 C.3     1  ZINC000506156755   -0.1600
      2 C2        -12.3132   -1.3834   52.9106 C.3     1  ZINC000506156755    0.1900
      3 H3        -12.0662   -2.3596   52.4934 H       1  ZINC000506156755    0.1000
      4 N4        -12.9069   -1.5561   54.2388 N.am    1  ZINC000506156755   -0.7200
      5 C5        -12.5577   -2.6112   55.0011 C.2     1  ZINC000506156755    0.5000
      6 O6        -11.7531   -3.4187   54.5869 O.2     1  ZINC000506156755   -0.5200
      7 C7        -13.1670   -2.7878   56.3680 C.3     1  ZINC000506156755    0.0900
      8 N8        -12.2549   -2.2532   57.3820 N.am    1  ZINC000506156755   -0.5600
      9 C9        -12.4191   -1.0733   58.0071 C.2     1  ZINC000506156755    0.5800
     10 O10       -13.3327   -0.2946   57.8231 O.2     1  ZINC000506156755   -0.4600
     11 C11       -11.3018   -0.8835   58.9561 C.ar    1  ZINC000506156755   -0.1400
     12 C12       -10.9498    0.1154   59.8489 C.ar    1  ZINC000506156755   -0.0400
     13 C13        -9.8016   -0.0201   60.6143 C.ar    1  ZINC000506156755   -0.0900
     14 C14        -9.0070   -1.1440   60.4923 C.ar    1  ZINC000506156755   -0.0900
     15 C15        -9.3468   -2.1518   59.6028 C.ar    1  ZINC000506156755   -0.0400
     16 C16       -10.4910   -2.0302   58.8315 C.ar    1  ZINC000506156755   -0.1400
     17 C17       -11.1461   -2.8800   57.8148 C.2     1  ZINC000506156755    0.5800
     18 O18       -10.7488   -3.9621   57.4327 O.2     1  ZINC000506156755   -0.4600
     19 C19       -11.0600   -0.5542   53.0245 C.ar    1  ZINC000506156755   -0.1200
     20 C20        -9.8621   -1.0416   52.5396 C.ar    1  ZINC000506156755   -0.0800
     21 C21        -8.7119   -0.2811   52.6433 C.ar    1  ZINC000506156755   -0.1400
     22 C22        -8.7575    0.9689   53.2324 C.ar    1  ZINC000506156755   -0.0800
     23 C23        -9.9531    1.4612   53.7191 C.ar    1  ZINC000506156755   -0.1900
     24 C24       -11.1096    0.7024   53.6115 C.ar    1  ZINC000506156755    0.1300
     25 O25       -12.2869    1.1845   54.0890 O.3     1  ZINC000506156755   -0.2500
     26 C26       -12.2405    2.1462   55.0478 C.ar    1  ZINC000506156755    0.0800
     27 C27       -11.6263    1.8858   56.2644 C.ar    1  ZINC000506156755   -0.1400
     28 C28       -11.5806    2.8653   57.2374 C.ar    1  ZINC000506156755   -0.1000
     29 C29       -12.1463    4.1044   56.9998 C.ar    1  ZINC000506156755   -0.1200
     30 C30       -12.7591    4.3665   55.7883 C.ar    1  ZINC000506156755   -0.1000
     31 C31       -12.8025    3.3925   54.8098 C.ar    1  ZINC000506156755   -0.1200
     32 H32       -14.2185   -1.2745   51.9113 H       1  ZINC000506156755    0.0700
     33 H33       -13.5590    0.3015   52.4110 H       1  ZINC000506156755    0.0600
     34 H34       -12.8703   -0.5463   51.0055 H       1  ZINC000506156755    0.0700
     35 H35       -13.5513   -0.9109   54.5696 H       1  ZINC000506156755    0.4000
     36 H36       -14.1158   -2.2533   56.4147 H       1  ZINC000506156755    0.1300
     37 H37       -13.3377   -3.8479   56.5555 H       1  ZINC000506156755    0.1300
     38 H38       -11.5669    0.9962   59.9481 H       1  ZINC000506156755    0.1400
     39 H39        -9.5262    0.7584   61.3104 H       1  ZINC000506156755    0.1400
     40 H40        -8.1148   -1.2378   61.0937 H       1  ZINC000506156755    0.1400
     41 H41        -8.7222   -3.0283   59.5119 H       1  ZINC000506156755    0.1400
     42 H42        -9.8237   -2.0179   52.0793 H       1  ZINC000506156755    0.1300
     43 H43        -7.7762   -0.6643   52.2639 H       1  ZINC000506156755    0.1300
     44 H44        -7.8577    1.5608   53.3125 H       1  ZINC000506156755    0.1300
     45 H45        -9.9882    2.4375   54.1795 H       1  ZINC000506156755    0.1300
     46 H46       -11.1846    0.9181   56.4506 H       1  ZINC000506156755    0.1300
     47 H47       -11.1029    2.6630   58.1846 H       1  ZINC000506156755    0.1300
     48 H48       -12.1099    4.8688   57.7620 H       1  ZINC000506156755    0.1300
     49 H49       -13.2002    5.3352   55.6052 H       1  ZINC000506156755    0.1300
     50 H50       -13.2809    3.5977   53.8636 H       1  ZINC000506156755    0.1300
@<TRIPOS>BOND
     1     1     2    1
     2     1    32    1
     3     1    33    1
     4     1    34    1
     5     2     3    1
     6     2     4    1
     7     2    19    1
     8     4     5   am
     9     4    35    1
    10     5     6    2
    11     5     7    1
    12     7     8    1
    13     7    36    1
    14     7    37    1
    15     8    17   am
    16     8     9   am
    17     9    10    2
    18     9    11    1
    19    11    16   ar
    20    11    12   ar
    21    12    13   ar
    22    12    38    1
    23    13    14   ar
    24    13    39    1
    25    14    15   ar
    26    14    40    1
    27    15    16   ar
    28    15    41    1
    29    16    17    1
    30    17    18    2
    31    19    24   ar
    32    19    20   ar
    33    20    21   ar
    34    20    42    1
    35    21    22   ar
    36    21    43    1
    37    22    23   ar
    38    22    44    1
    39    23    24   ar
    40    23    45    1
    41    24    25    1
    42    25    26    1
    43    26    31   ar
    44    26    27   ar
    45    27    28   ar
    46    27    46    1
    47    28    29   ar
    48    28    47    1
    49    29    30   ar
    50    29    48    1
    51    30    31   ar
    52    30    49    1
    53    31    50    1
@<TRIPOS>SUBSTRUCTURE
     1 ZINC000506156755        1 TEMP              0 ****  ****    0 ROOT


##########                                Name:    ZINC000482910431
##########                DOCK_Rotatable_Bonds:                   7
##########                         Heavy_Atoms:                  29
##########                    Molecular_Weight:             414.867
##########                DOCK_Rotatable_Bonds:                   7
##########                       Formal_Charge:          -0.0300001
##########                     HBond_Acceptors:                   8
##########                        HBond_Donors:                   2
##########                         Heavy_Atoms:                  29
##########                          Grid_Score:          -26.376442
##########                     Grid_vdw_energy:          -26.043028
##########                      Grid_es_energy:           -0.333414
##########           Internal_energy_repulsive:           13.417524

@<TRIPOS>MOLECULE
ZINC000482910431
 49 51 1 0 0
SMALL
USER_CHARGES


@<TRIPOS>ATOM
      1 C1          3.6467    1.6886   51.5222 C.3     1  ZINC000482910431   -0.1500
      2 C2          3.0090    2.9522   52.1032 C.3     1  ZINC000482910431    0.0800
      3 C3          2.9468    2.8374   53.6277 C.3     1  ZINC000482910431   -0.1400
      4 C4          3.8174    4.1250   51.7321 C.1     1  ZINC000482910431    0.2100
      5 N5          4.4414    5.0302   51.4458 N.1     1  ZINC000482910431   -0.4300
      6 C6          1.6145    3.1094   51.5540 C.ar    1  ZINC000482910431   -0.1000
      7 C7          1.1294    4.3688   51.2531 C.ar    1  ZINC000482910431   -0.0900
      8 C8         -0.1481    4.5162   50.7492 C.ar    1  ZINC000482910431   -0.1200
      9 C9         -0.9454    3.3979   50.5445 C.ar    1  ZINC000482910431    0.1700
     10 N10        -2.2401    3.5438   50.0336 N.am    1  ZINC000482910431   -0.6800
     11 C11        -3.2974    3.5516   50.8692 C.2     1  ZINC000482910431    0.7100
     12 O12        -3.1265    3.4318   52.0670 O.2     1  ZINC000482910431   -0.5500
     13 N13        -4.5443    3.6921   50.3772 N.am    1  ZINC000482910431   -0.7300
     14 C14        -5.6938    3.6989   51.2854 C.3     1  ZINC000482910431    0.1400
     15 H15        -5.4972    3.0687   52.1527 H       1  ZINC000482910431    0.1400
     16 C16        -6.0244    5.1427   51.7292 C.3     1  ZINC000482910431   -0.1400
     17 C17        -7.5676    5.1078   51.7906 C.3     1  ZINC000482910431    0.0900
     18 N18        -7.9725    4.0470   50.8607 N.am    1  ZINC000482910431   -0.5600
     19 C19        -9.2664    3.8974   50.3484 C.ar    1  ZINC000482910431    0.2000
     20 C20        -9.4999    4.0641   48.9899 C.ar    1  ZINC000482910431   -0.1600
     21 C21       -10.7775    3.9162   48.4855 C.ar    1  ZINC000482910431   -0.0500
     22 C22       -11.8250    3.6020   49.3322 C.ar    1  ZINC000482910431   -0.1000
     23 Cl23      -13.4292    3.4168   48.6947 Cl      1  ZINC000482910431   -0.0500
     24 C24       -11.5957    3.4342   50.6889 C.ar    1  ZINC000482910431    0.1400
     25 F25       -12.6203    3.1267   51.5141 F       1  ZINC000482910431   -0.1200
     26 C26       -10.3174    3.5762   51.1972 C.ar    1  ZINC000482910431   -0.1900
     27 C27        -6.9404    3.2343   50.5650 C.2     1  ZINC000482910431    0.5000
     28 O28        -7.0017    2.2740   49.8267 O.2     1  ZINC000482910431   -0.4800
     29 C29        -0.4553    2.1345   50.8477 C.ar    1  ZINC000482910431   -0.1400
     30 C30         0.8248    1.9934   51.3463 C.ar    1  ZINC000482910431   -0.0900
     31 H31         3.0480    0.8202   51.7970 H       1  ZINC000482910431    0.0800
     32 H32         3.6910    1.7705   50.4362 H       1  ZINC000482910431    0.0700
     33 H33         4.6554    1.5750   51.9195 H       1  ZINC000482910431    0.0700
     34 H34         3.9555    2.7238   54.0250 H       1  ZINC000482910431    0.0700
     35 H35         2.4925    3.7376   54.0416 H       1  ZINC000482910431    0.0700
     36 H36         2.3481    1.9690   53.9025 H       1  ZINC000482910431    0.0800
     37 H37         1.7499    5.2383   51.4128 H       1  ZINC000482910431    0.1400
     38 H38        -0.5265    5.5002   50.5147 H       1  ZINC000482910431    0.1400
     39 H39        -2.3764    3.6393   49.0780 H       1  ZINC000482910431    0.4100
     40 H40        -4.6805    3.7889   49.4217 H       1  ZINC000482910431    0.4000
     41 H41        -5.5997    5.3561   52.7102 H       1  ZINC000482910431    0.1100
     42 H42        -5.6796    5.8664   50.9907 H       1  ZINC000482910431    0.1000
     43 H43        -7.8996    4.8704   52.8012 H       1  ZINC000482910431    0.0900
     44 H44        -7.9795    6.0656   51.4726 H       1  ZINC000482910431    0.1000
     45 H45        -8.6829    4.3099   48.3277 H       1  ZINC000482910431    0.1700
     46 H46       -10.9586    4.0465   47.4287 H       1  ZINC000482910431    0.1500
     47 H47       -10.1381    3.4452   52.2541 H       1  ZINC000482910431    0.1500
     48 H48        -1.0731    1.2628   50.6896 H       1  ZINC000482910431    0.1300
     49 H49         1.2067    1.0109   51.5819 H       1  ZINC000482910431    0.1300
@<TRIPOS>BOND
     1     1     2    1
     2     1    31    1
     3     1    32    1
     4     1    33    1
     5     2     3    1
     6     2     4    1
     7     2     6    1
     8     3    34    1
     9     3    35    1
    10     3    36    1
    11     4     5    3
    12     6    30   ar
    13     6     7   ar
    14     7     8   ar
    15     7    37    1
    16     8     9   ar
    17     8    38    1
    18     9    10    1
    19     9    29   ar
    20    10    11   am
    21    10    39    1
    22    11    12    2
    23    11    13   am
    24    13    14    1
    25    13    40    1
    26    14    15    1
    27    14    27    1
    28    14    16    1
    29    16    17    1
    30    16    41    1
    31    16    42    1
    32    17    18    1
    33    17    43    1
    34    17    44    1
    35    18    19    1
    36    18    27   am
    37    19    26   ar
    38    19    20   ar
    39    20    21   ar
    40    20    45    1
    41    21    22   ar
    42    21    46    1
    43    22    23    1
    44    22    24   ar
    45    24    25    1
    46    24    26   ar
    47    26    47    1
    48    27    28    2
    49    29    30   ar
    50    29    48    1
    51    30    49    1
@<TRIPOS>SUBSTRUCTURE
     1 ZINC000482910431        1 TEMP              0 ****  ****    0 ROOT


##########                                Name:    ZINC001193456967
##########                DOCK_Rotatable_Bonds:                   3
##########                         Heavy_Atoms:                  27
##########                    Molecular_Weight:             392.451
##########                DOCK_Rotatable_Bonds:                   3
##########                       Formal_Charge:           0.0300002
##########                     HBond_Acceptors:                   8
##########                        HBond_Donors:                   0
##########                         Heavy_Atoms:                  27
##########                          Grid_Score:          -26.341009
##########                     Grid_vdw_energy:          -26.770077
##########                      Grid_es_energy:            0.429067
##########           Internal_energy_repulsive:           36.273468

@<TRIPOS>MOLECULE
ZINC001193456967
 48 50 1 0 0
SMALL
USER_CHARGES


@<TRIPOS>ATOM
      1 C1         -8.0618    2.6936   51.4841 C.3     1  ZINC001193456967   -0.1400
      2 C2         -9.1595    1.7299   51.8547 C.ar    1  ZINC001193456967    0.0300
      3 C3        -10.4601    2.1800   51.9829 C.ar    1  ZINC001193456967   -0.1400
      4 C4        -11.4671    1.2958   52.3230 C.ar    1  ZINC001193456967    0.0300
      5 C5        -11.1734   -0.0380   52.5343 C.ar    1  ZINC001193456967   -0.6900
      6 S6        -12.4567   -1.1648   52.9683 S.o2    1  ZINC001193456967    2.7100
      7 O7        -13.6810   -0.5293   52.6272 O.2     1  ZINC001193456967   -0.9300
      8 O8        -12.0690   -2.4316   52.4544 O.2     1  ZINC001193456967   -0.9400
      9 N9        -12.4472   -1.3067   54.6182 N.am    1  ZINC001193456967   -1.0000
     10 C10       -11.3155   -1.7850   55.4330 C.3     1  ZINC001193456967    0.1100
     11 C11       -11.9617   -2.3127   56.7382 C.3     1  ZINC001193456967   -0.1200
     12 C12       -13.1090   -1.2905   56.9531 C.3     1  ZINC001193456967   -0.0500
     13 H13       -12.7375   -0.3916   57.4451 H       1  ZINC001193456967    0.1000
     14 C14       -14.2301   -1.9070   57.7494 C.ar    1  ZINC001193456967   -0.0800
     15 C15       -14.5706   -3.2322   57.5513 C.ar    1  ZINC001193456967   -0.0800
     16 C16       -15.5985   -3.7986   58.2808 C.ar    1  ZINC001193456967   -0.1500
     17 C17       -16.2873   -3.0385   59.2109 C.ar    1  ZINC001193456967    0.1000
     18 F18       -17.2921   -3.5914   59.9250 F       1  ZINC001193456967   -0.1400
     19 C19       -15.9451   -1.7116   59.4088 C.ar    1  ZINC001193456967   -0.1500
     20 C20       -14.9137   -1.1486   58.6815 C.ar    1  ZINC001193456967   -0.0800
     21 C21       -13.5639   -0.9705   55.5135 C.3     1  ZINC001193456967    0.1900
     22 C22       -13.9064    0.5159   55.3943 C.3     1  ZINC001193456967   -0.1800
     23 C23       -14.7847   -1.8194   55.1528 C.3     1  ZINC001193456967   -0.1800
     24 C24        -9.8727   -0.4885   52.4048 C.ar    1  ZINC001193456967    0.0400
     25 C25        -8.8666    0.3946   52.0611 C.ar    1  ZINC001193456967   -0.0600
     26 N26        -7.4740   -0.0876   51.9224 N.pl3   1  ZINC001193456967    0.0200
     27 O27        -6.7554    0.3688   51.0512 O.2     1  ZINC001193456967   -0.1400
     28 O28        -7.0467   -0.9407   52.6794 O.2     1  ZINC001193456967   -0.1500
     29 H29        -7.8981    2.6612   50.4070 H       1  ZINC001193456967    0.1100
     30 H30        -8.3500    3.7030   51.7775 H       1  ZINC001193456967    0.0900
     31 H31        -7.1432    2.4137   51.9997 H       1  ZINC001193456967    0.0800
     32 H32       -10.6895    3.2223   51.8178 H       1  ZINC001193456967    0.1600
     33 H33       -12.4832    1.6476   52.4238 H       1  ZINC001193456967    0.1600
     34 H34       -10.7902   -2.5891   54.9178 H       1  ZINC001193456967    0.0900
     35 H35       -10.6326   -0.9643   55.6527 H       1  ZINC001193456967    0.0700
     36 H36       -12.3562   -3.3193   56.5997 H       1  ZINC001193456967    0.0900
     37 H37       -11.2521   -2.2831   57.5652 H       1  ZINC001193456967    0.0900
     38 H38       -14.0332   -3.8249   56.8257 H       1  ZINC001193456967    0.1400
     39 H39       -15.8647   -4.8337   58.1254 H       1  ZINC001193456967    0.1400
     40 H40       -16.4820   -1.1177   60.1337 H       1  ZINC001193456967    0.1400
     41 H41       -14.6464   -0.1137   58.8359 H       1  ZINC001193456967    0.1300
     42 H42       -13.0259    1.1119   55.6341 H       1  ZINC001193456967    0.0700
     43 H43       -14.2266    0.7343   54.3755 H       1  ZINC001193456967    0.0600
     44 H44       -14.7107    0.7601   56.0882 H       1  ZINC001193456967    0.0800
     45 H45       -15.5599   -1.6796   55.9062 H       1  ZINC001193456967    0.0800
     46 H46       -15.1654   -1.5127   54.1786 H       1  ZINC001193456967    0.0900
     47 H47       -14.4984   -2.8705   55.1166 H       1  ZINC001193456967    0.0700
     48 H48        -9.6433   -1.5309   52.5696 H       1  ZINC001193456967    0.1600
@<TRIPOS>BOND
     1     1     2    1
     2     1    29    1
     3     1    30    1
     4     1    31    1
     5     2    25   ar
     6     2     3   ar
     7     3     4   ar
     8     3    32    1
     9     4     5   ar
    10     4    33    1
    11     5     6    1
    12     5    24   ar
    13     6     7    2
    14     6     8    2
    15     6     9   am
    16     9    21    1
    17     9    10    1
    18    10    11    1
    19    10    34    1
    20    10    35    1
    21    11    12    1
    22    11    36    1
    23    11    37    1
    24    12    13    1
    25    12    14    1
    26    12    21    1
    27    14    20   ar
    28    14    15   ar
    29    15    16   ar
    30    15    38    1
    31    16    17   ar
    32    16    39    1
    33    17    18    1
    34    17    19   ar
    35    19    20   ar
    36    19    40    1
    37    20    41    1
    38    21    22    1
    39    21    23    1
    40    22    42    1
    41    22    43    1
    42    22    44    1
    43    23    45    1
    44    23    46    1
    45    23    47    1
    46    24    25   ar
    47    24    48    1
    48    25    26    1
    49    26    27    2
    50    26    28    2
@<TRIPOS>SUBSTRUCTURE
     1 ZINC001193456967        1 TEMP              0 ****  ****    0 ROOT


##########                                Name:    ZINC000482139334
##########                DOCK_Rotatable_Bonds:                   4
##########                         Heavy_Atoms:                  26
##########                    Molecular_Weight:             348.376
##########                DOCK_Rotatable_Bonds:                   4
##########                       Formal_Charge:           0.0300002
##########                     HBond_Acceptors:                   5
##########                        HBond_Donors:                   1
##########                         Heavy_Atoms:                  26
##########                          Grid_Score:          -26.269777
##########                     Grid_vdw_energy:          -25.610439
##########                      Grid_es_energy:           -0.659339
##########           Internal_energy_repulsive:           18.656498

@<TRIPOS>MOLECULE
ZINC000482139334
 43 47 1 0 0
SMALL
USER_CHARGES


@<TRIPOS>ATOM
      1 O1         -9.1804   -1.0835   59.2493 O.2     1  ZINC000482139334   -0.4800
      2 C2        -10.3911   -1.0476   59.3108 C.2     1  ZINC000482139334    0.5500
      3 N3        -10.9966   -0.6532   60.4484 N.am    1  ZINC000482139334   -0.6100
      4 C4        -10.2358   -0.2939   61.5500 C.2     1  ZINC000482139334    0.4300
      5 N5        -10.7041    0.1847   62.6740 N.2     1  ZINC000482139334   -0.4800
      6 C6         -9.6598    0.4152   63.5123 C.2     1  ZINC000482139334    0.0400
      7 C7         -9.7427    0.9572   64.8909 C.ar    1  ZINC000482139334   -0.0500
      8 C8        -10.9705    1.3599   65.4112 C.ar    1  ZINC000482139334   -0.0800
      9 C9        -11.0422    1.8631   66.6948 C.ar    1  ZINC000482139334   -0.1300
     10 C10        -9.8983    1.9687   67.4649 C.ar    1  ZINC000482139334   -0.0800
     11 C11        -8.6754    1.5713   66.9552 C.ar    1  ZINC000482139334   -0.1600
     12 C12        -8.5918    1.0602   65.6737 C.ar    1  ZINC000482139334    0.1300
     13 F13        -7.3972    0.6721   65.1761 F       1  ZINC000482139334   -0.1200
     14 C14        -8.5296    0.0586   62.8574 C.2     1  ZINC000482139334   -0.0600
     15 O15        -8.9001   -0.3863   61.6386 O.3     1  ZINC000482139334   -0.1800
     16 C16       -11.2183   -1.4382   58.1132 C.3     1  ZINC000482139334   -0.1800
     17 H17       -11.2485   -2.5047   57.8901 H       1  ZINC000482139334    0.1400
     18 C18       -12.4806   -0.6198   57.8282 C.3     1  ZINC000482139334   -0.1200
     19 C19       -11.2524   -0.4716   56.9358 C.3     1  ZINC000482139334   -0.0500
     20 C20       -10.4174    0.8198   56.9406 C.3     1  ZINC000482139334   -0.0700
     21 C21       -10.5690    1.3124   55.4842 C.3     1  ZINC000482139334   -0.0900
     22 C22       -10.8521    0.0670   54.6705 C.ar    1  ZINC000482139334   -0.0800
     23 C23       -10.7706   -0.1501   53.3059 C.ar    1  ZINC000482139334   -0.1100
     24 C24       -11.0835   -1.3877   52.7779 C.ar    1  ZINC000482139334   -0.1100
     25 C25       -11.4800   -2.4137   53.6147 C.ar    1  ZINC000482139334   -0.1200
     26 C26       -11.5619   -2.1998   54.9768 C.ar    1  ZINC000482139334   -0.1000
     27 C27       -11.2484   -0.9606   55.5090 C.ar    1  ZINC000482139334   -0.0700
     28 H28       -11.9649   -0.6207   60.4964 H       1  ZINC000482139334    0.4400
     29 H29       -11.8649    1.2789   64.8113 H       1  ZINC000482139334    0.1300
     30 H30       -11.9941    2.1754   67.0984 H       1  ZINC000482139334    0.1400
     31 H31        -9.9601    2.3634   68.4684 H       1  ZINC000482139334    0.1400
     32 H32        -7.7853    1.6566   67.5608 H       1  ZINC000482139334    0.1400
     33 H33        -7.5212    0.1160   63.2400 H       1  ZINC000482139334    0.2200
     34 H34       -13.3409   -1.1478   57.4169 H       1  ZINC000482139334    0.1200
     35 H35       -12.7126    0.2010   58.5069 H       1  ZINC000482139334    0.1100
     36 H36       -10.8301    1.5461   57.6407 H       1  ZINC000482139334    0.0800
     37 H37        -9.3737    0.6062   57.1713 H       1  ZINC000482139334    0.0900
     38 H38       -11.4011    2.0120   55.4065 H       1  ZINC000482139334    0.0800
     39 H39        -9.6456    1.7828   55.1463 H       1  ZINC000482139334    0.0800
     40 H40       -10.4613    0.6514   52.6513 H       1  ZINC000482139334    0.1200
     41 H41       -11.0189   -1.5530   51.7126 H       1  ZINC000482139334    0.1300
     42 H42       -11.7257   -3.3818   53.2038 H       1  ZINC000482139334    0.1300
     43 H43       -11.8723   -3.0024   55.6295 H       1  ZINC000482139334    0.1200
@<TRIPOS>BOND
     1     1     2    2
     2     2     3   am
     3     2    16    1
     4     3     4    1
     5     3    28    1
     6     4    15    1
     7     4     5    2
     8     5     6    1
     9     6     7    1
    10     6    14    2
    11     7    12   ar
    12     7     8   ar
    13     8     9   ar
    14     8    29    1
    15     9    10   ar
    16     9    30    1
    17    10    11   ar
    18    10    31    1
    19    11    12   ar
    20    11    32    1
    21    12    13    1
    22    14    15    1
    23    14    33    1
    24    16    17    1
    25    16    19    1
    26    16    18    1
    27    18    19    1
    28    18    34    1
    29    18    35    1
    30    19    27    1
    31    19    20    1
    32    20    21    1
    33    20    36    1
    34    20    37    1
    35    21    22    1
    36    21    38    1
    37    21    39    1
    38    22    27   ar
    39    22    23   ar
    40    23    24   ar
    41    23    40    1
    42    24    25   ar
    43    24    41    1
    44    25    26   ar
    45    25    42    1
    46    26    27   ar
    47    26    43    1
@<TRIPOS>SUBSTRUCTURE
     1 ZINC000482139334        1 TEMP              0 ****  ****    0 ROOT


##########                                Name:    ZINC000517001504
##########                DOCK_Rotatable_Bonds:                   5
##########                         Heavy_Atoms:                  29
##########                    Molecular_Weight:             403.401
##########                DOCK_Rotatable_Bonds:                   5
##########                       Formal_Charge:          -0.0200002
##########                     HBond_Acceptors:                   7
##########                        HBond_Donors:                   0
##########                         Heavy_Atoms:                  29
##########                          Grid_Score:          -26.267784
##########                     Grid_vdw_energy:          -26.982944
##########                      Grid_es_energy:            0.715160
##########           Internal_energy_repulsive:           32.492153

@<TRIPOS>MOLECULE
ZINC000517001504
 49 52 1 0 0
SMALL
USER_CHARGES


@<TRIPOS>ATOM
      1 O1        -11.5382   -0.6149   56.7510 O.2     1  ZINC000517001504   -0.5200
      2 C2        -11.4991   -0.6045   57.9632 C.2     1  ZINC000517001504    0.5400
      3 N3        -10.7872    0.3421   58.6064 N.am    1  ZINC000517001504   -0.6100
      4 C4        -10.0445    1.3696   57.8595 C.3     1  ZINC000517001504    0.0600
      5 C5         -8.6078    1.4107   58.3922 C.3     1  ZINC000517001504    0.0500
      6 O6         -8.6368    1.5561   59.8141 O.3     1  ZINC000517001504   -0.3700
      7 C7         -9.2600    0.4682   60.5010 C.3     1  ZINC000517001504    0.1200
      8 H8         -8.7507   -0.4617   60.2479 H       1  ZINC000517001504    0.0800
      9 C9         -9.1776    0.6985   61.9880 C.ar    1  ZINC000517001504   -0.0600
     10 C10        -9.6497    1.8785   62.5319 C.ar    1  ZINC000517001504   -0.0900
     11 C11        -9.5742    2.0897   63.8959 C.ar    1  ZINC000517001504   -0.0700
     12 C12        -9.0269    1.1209   64.7161 C.ar    1  ZINC000517001504   -0.1800
     13 C13        -8.9440    1.3514   66.2031 C.3     1  ZINC000517001504    0.5100
     14 F14       -10.1333    1.9361   66.6513 F       1  ZINC000517001504   -0.1800
     15 F15        -8.7510    0.1286   66.8546 F       1  ZINC000517001504   -0.1800
     16 F16        -7.8707    2.2039   66.4837 F       1  ZINC000517001504   -0.1800
     17 C17        -8.5559   -0.0595   64.1724 C.ar    1  ZINC000517001504   -0.0700
     18 C18        -8.6350   -0.2724   62.8088 C.ar    1  ZINC000517001504   -0.1000
     19 C19       -10.7348    0.3822   60.0764 C.3     1  ZINC000517001504    0.0900
     20 C20       -12.2515   -1.6463   58.7502 C.3     1  ZINC000517001504   -0.0600
     21 C21       -13.3609   -1.0616   59.5857 C.ar    1  ZINC000517001504   -0.0700
     22 C22       -13.6919    0.2745   59.4577 C.ar    1  ZINC000517001504   -0.1200
     23 C23       -14.7097    0.8108   60.2242 C.ar    1  ZINC000517001504   -0.1100
     24 C24       -15.3967    0.0112   61.1183 C.ar    1  ZINC000517001504   -0.1100
     25 C25       -15.0662   -1.3251   61.2455 C.ar    1  ZINC000517001504   -0.1100
     26 C26       -14.0514   -1.8624   60.4761 C.ar    1  ZINC000517001504   -0.1000
     27 C27       -12.6826   -2.8617   57.9113 C.3     1  ZINC000517001504   -0.1600
     28 C28       -11.3504   -3.4823   58.2830 C.2     1  ZINC000517001504    0.3600
     29 O29       -10.6163   -4.3100   57.7992 O.2     1  ZINC000517001504   -0.4100
     30 C30       -11.3392   -2.6130   59.5248 C.3     1  ZINC000517001504   -0.1900
     31 H31       -10.0358    1.1181   56.7989 H       1  ZINC000517001504    0.1000
     32 H32       -10.5172    2.3413   58.0030 H       1  ZINC000517001504    0.0800
     33 H33        -8.0961    0.4842   58.1314 H       1  ZINC000517001504    0.0600
     34 H34        -8.0797    2.2557   57.9505 H       1  ZINC000517001504    0.1100
     35 H35       -10.0774    2.6353   61.8911 H       1  ZINC000517001504    0.1400
     36 H36        -9.9424    3.0119   64.3207 H       1  ZINC000517001504    0.1400
     37 H37        -8.1287   -0.8166   64.8133 H       1  ZINC000517001504    0.1400
     38 H38        -8.2670   -1.1948   62.3841 H       1  ZINC000517001504    0.1400
     39 H39       -11.2743    1.2547   60.4448 H       1  ZINC000517001504    0.0800
     40 H40       -11.1815   -0.5250   60.4831 H       1  ZINC000517001504    0.1100
     41 H41       -13.1552    0.8993   58.7593 H       1  ZINC000517001504    0.1300
     42 H42       -14.9679    1.8549   60.1247 H       1  ZINC000517001504    0.1300
     43 H43       -16.1913    0.4304   61.7175 H       1  ZINC000517001504    0.1300
     44 H44       -15.6028   -1.9499   61.9443 H       1  ZINC000517001504    0.1300
     45 H45       -13.7933   -2.9064   60.5755 H       1  ZINC000517001504    0.1200
     46 H46       -13.5420   -3.3930   58.3202 H       1  ZINC000517001504    0.1300
     47 H47       -12.7831   -2.6457   56.8477 H       1  ZINC000517001504    0.1100
     48 H48       -10.3592   -2.1970   59.7588 H       1  ZINC000517001504    0.1000
     49 H49       -11.8217   -3.0745   60.3863 H       1  ZINC000517001504    0.1400
@<TRIPOS>BOND
     1     1     2    2
     2     2     3   am
     3     2    20    1
     4     3    19    1
     5     3     4    1
     6     4     5    1
     7     4    31    1
     8     4    32    1
     9     5     6    1
    10     5    33    1
    11     5    34    1
    12     6     7    1
    13     7     8    1
    14     7     9    1
    15     7    19    1
    16     9    18   ar
    17     9    10   ar
    18    10    11   ar
    19    10    35    1
    20    11    12   ar
    21    11    36    1
    22    12    13    1
    23    12    17   ar
    24    13    14    1
    25    13    15    1
    26    13    16    1
    27    17    18   ar
    28    17    37    1
    29    18    38    1
    30    19    39    1
    31    19    40    1
    32    20    30    1
    33    20    21    1
    34    20    27    1
    35    21    26   ar
    36    21    22   ar
    37    22    23   ar
    38    22    41    1
    39    23    24   ar
    40    23    42    1
    41    24    25   ar
    42    24    43    1
    43    25    26   ar
    44    25    44    1
    45    26    45    1
    46    27    28    1
    47    27    46    1
    48    27    47    1
    49    28    29    2
    50    28    30    1
    51    30    48    1
    52    30    49    1
@<TRIPOS>SUBSTRUCTURE
     1 ZINC000517001504        1 TEMP              0 ****  ****    0 ROOT


##########                                Name:    ZINC000463474628
##########                DOCK_Rotatable_Bonds:                   5
##########                         Heavy_Atoms:                  25
##########                    Molecular_Weight:              407.35
##########                DOCK_Rotatable_Bonds:                   5
##########                       Formal_Charge:           0.0200004
##########                     HBond_Acceptors:                   4
##########                        HBond_Donors:                   0
##########                         Heavy_Atoms:                  25
##########                          Grid_Score:          -26.235809
##########                     Grid_vdw_energy:          -26.556892
##########                      Grid_es_energy:            0.321083
##########           Internal_energy_repulsive:           20.843407

@<TRIPOS>MOLECULE
ZINC000463474628
 52 54 1 0 0
SMALL
USER_CHARGES


@<TRIPOS>ATOM
      1 C1         -3.6382    2.6439   51.2031 C.3     1  ZINC000463474628   -0.1400
      2 C2         -4.9899    2.3494   51.8567 C.3     1  ZINC000463474628   -0.1300
      3 C3         -6.1135    2.6512   50.8630 C.3     1  ZINC000463474628    0.1400
      4 H4         -5.9763    2.0598   49.9578 H       1  ZINC000463474628    0.0800
      5 C5         -6.1147    4.1542   50.5130 C.3     1  ZINC000463474628   -0.1300
      6 C6         -7.6271    4.4897   50.4269 C.3     1  ZINC000463474628   -0.1300
      7 C7         -8.2105    3.5837   51.5397 C.3     1  ZINC000463474628    0.0900
      8 N8         -7.4156    2.3403   51.4710 N.am    1  ZINC000463474628   -0.6100
      9 C9         -7.8176    1.1264   51.8965 C.2     1  ZINC000463474628    0.5300
     10 O10        -7.0783    0.1709   51.7900 O.2     1  ZINC000463474628   -0.5100
     11 C11        -9.1860    0.9563   52.5047 C.3     1  ZINC000463474628   -0.1200
     12 H12        -9.9234    1.4748   51.8920 H       1  ZINC000463474628    0.1000
     13 C13        -9.1931    1.5426   53.9183 C.3     1  ZINC000463474628   -0.1000
     14 C14       -10.5910    1.3999   54.5245 C.3     1  ZINC000463474628   -0.1300
     15 C15       -10.9546   -0.0856   54.6154 C.3     1  ZINC000463474628    0.0900
     16 N16       -10.8095   -0.6902   53.2842 N.am    1  ZINC000463474628   -0.6000
     17 C17       -11.8276   -1.3749   52.7264 C.2     1  ZINC000463474628    0.5700
     18 O18       -11.6951   -1.8704   51.6243 O.2     1  ZINC000463474628   -0.5200
     19 C19       -13.1052   -1.5232   53.4546 C.ar    1  ZINC000463474628   -0.1200
     20 C20       -13.2430   -2.5078   54.4344 C.ar    1  ZINC000463474628   -0.0800
     21 C21       -14.4377   -2.6414   55.1105 C.ar    1  ZINC000463474628   -0.1000
     22 C22       -15.4991   -1.8014   54.8190 C.ar    1  ZINC000463474628   -0.0700
     23 Br23      -17.1334   -1.9908   55.7511 Br      1  ZINC000463474628   -0.0400
     24 C24       -15.3684   -0.8226   53.8479 C.ar    1  ZINC000463474628   -0.0900
     25 C25       -14.1773   -0.6755   53.1691 C.ar    1  ZINC000463474628   -0.0300
     26 C26       -14.0368    0.3899   52.1127 C.3     1  ZINC000463474628   -0.1300
     27 C27        -9.5339   -0.5341   52.5719 C.3     1  ZINC000463474628    0.1200
     28 H28        -3.3301    1.7873   50.6037 H       1  ZINC000463474628    0.0700
     29 H29        -3.7277    3.5217   50.5632 H       1  ZINC000463474628    0.0600
     30 H30        -2.8940    2.8325   51.9768 H       1  ZINC000463474628    0.0300
     31 H31        -5.0326    1.2991   52.1455 H       1  ZINC000463474628    0.0600
     32 H32        -5.1096    2.9746   52.7414 H       1  ZINC000463474628    0.0700
     33 H33        -5.6353    4.7342   51.3015 H       1  ZINC000463474628    0.0800
     34 H34        -5.6261    4.3272   49.5541 H       1  ZINC000463474628    0.0800
     35 H35        -7.8069    5.5423   50.6456 H       1  ZINC000463474628    0.0900
     36 H36        -8.0321    4.2203   49.4515 H       1  ZINC000463474628    0.0800
     37 H37        -8.0932    4.0570   52.5145 H       1  ZINC000463474628    0.0700
     38 H38        -9.2616    3.3716   51.3441 H       1  ZINC000463474628    0.0800
     39 H39        -8.4726    1.0076   54.5369 H       1  ZINC000463474628    0.0800
     40 H40        -8.9220    2.5974   53.8753 H       1  ZINC000463474628    0.0700
     41 H41       -10.6015    1.8386   55.5223 H       1  ZINC000463474628    0.0800
     42 H42       -11.3157    1.9138   53.8930 H       1  ZINC000463474628    0.0700
     43 H43       -10.2858   -0.5832   55.3176 H       1  ZINC000463474628    0.0800
     44 H44       -11.9857   -0.1894   54.9535 H       1  ZINC000463474628    0.1000
     45 H45       -12.4159   -3.1639   54.6624 H       1  ZINC000463474628    0.1400
     46 H46       -14.5458   -3.4030   55.8686 H       1  ZINC000463474628    0.1400
     47 H47       -16.2000   -0.1706   53.6245 H       1  ZINC000463474628    0.1400
     48 H48       -13.5902    1.2815   52.5528 H       1  ZINC000463474628    0.0700
     49 H49       -13.3985    0.0228   51.3090 H       1  ZINC000463474628    0.0900
     50 H50       -15.0201    0.6362   51.7120 H       1  ZINC000463474628    0.0700
     51 H51        -9.6278   -0.9341   51.5623 H       1  ZINC000463474628    0.1000
     52 H52        -8.7488   -1.0681   53.1072 H       1  ZINC000463474628    0.0800
@<TRIPOS>BOND
     1     1     2    1
     2     1    28    1
     3     1    29    1
     4     1    30    1
     5     2     3    1
     6     2    31    1
     7     2    32    1
     8     3     4    1
     9     3     8    1
    10     3     5    1
    11     5     6    1
    12     5    33    1
    13     5    34    1
    14     6     7    1
    15     6    35    1
    16     6    36    1
    17     7     8    1
    18     7    37    1
    19     7    38    1
    20     8     9   am
    21     9    10    2
    22     9    11    1
    23    11    12    1
    24    11    27    1
    25    11    13    1
    26    13    14    1
    27    13    39    1
    28    13    40    1
    29    14    15    1
    30    14    41    1
    31    14    42    1
    32    15    16    1
    33    15    43    1
    34    15    44    1
    35    16    17   am
    36    16    27    1
    37    17    18    2
    38    17    19    1
    39    19    25   ar
    40    19    20   ar
    41    20    21   ar
    42    20    45    1
    43    21    22   ar
    44    21    46    1
    45    22    23    1
    46    22    24   ar
    47    24    25   ar
    48    24    47    1
    49    25    26    1
    50    26    48    1
    51    26    49    1
    52    26    50    1
    53    27    51    1
    54    27    52    1
@<TRIPOS>SUBSTRUCTURE
     1 ZINC000463474628        1 TEMP              0 ****  ****    0 ROOT


##########                                Name:    ZINC000566738344
##########                DOCK_Rotatable_Bonds:                   5
##########                         Heavy_Atoms:                  23
##########                    Molecular_Weight:             352.478
##########                DOCK_Rotatable_Bonds:                   5
##########                       Formal_Charge:           0.0100005
##########                     HBond_Acceptors:                   7
##########                        HBond_Donors:                   0
##########                         Heavy_Atoms:                  23
##########                          Grid_Score:          -26.224808
##########                     Grid_vdw_energy:          -25.934969
##########                      Grid_es_energy:           -0.289839
##########           Internal_energy_repulsive:           17.852692

@<TRIPOS>MOLECULE
ZINC000566738344
 43 44 1 0 0
SMALL
USER_CHARGES


@<TRIPOS>ATOM
      1 C1         -5.5367    2.9446   49.9394 C.3     1  ZINC000566738344   -0.1300
      2 C2         -6.2539    2.5065   51.1903 C.ar    1  ZINC000566738344   -0.0100
      3 C3         -7.0411    1.3782   51.1735 C.ar    1  ZINC000566738344   -0.1000
      4 C4         -7.7047    0.9730   52.3289 C.ar    1  ZINC000566738344   -0.0500
      5 S5         -8.7124   -0.4722   52.3030 S.3     1  ZINC000566738344   -0.0300
      6 C6        -10.2206    0.0666   53.1550 C.3     1  ZINC000566738344   -0.1200
      7 H7         -9.9526    0.5804   54.0781 H       1  ZINC000566738344    0.1200
      8 C8        -11.0048    1.0191   52.2502 C.3     1  ZINC000566738344   -0.1300
      9 C9        -11.0716   -1.1346   53.4775 C.2     1  ZINC000566738344    0.5200
     10 O10       -10.8965   -2.1785   52.8855 O.2     1  ZINC000566738344   -0.5000
     11 N11       -12.0273   -1.0488   54.4240 N.am    1  ZINC000566738344   -0.6000
     12 C12       -12.2401    0.2126   55.1378 C.3     1  ZINC000566738344    0.0600
     13 C13       -12.8534   -2.2169   54.7388 C.3     1  ZINC000566738344    0.1500
     14 H14       -12.8677   -2.8961   53.8864 H       1  ZINC000566738344    0.1300
     15 C15       -12.2776   -2.9416   55.9681 C.3     1  ZINC000566738344   -0.1300
     16 C16       -13.3616   -3.9451   56.4394 C.3     1  ZINC000566738344   -0.5900
     17 S17       -14.9025   -2.9625   56.2995 S.o2    1  ZINC000566738344    2.4000
     18 O18       -15.9208   -3.7640   55.7167 O.2     1  ZINC000566738344   -0.9300
     19 O19       -15.1463   -2.2915   57.5282 O.2     1  ZINC000566738344   -0.9300
     20 C20       -14.2904   -1.7632   55.0640 C.3     1  ZINC000566738344   -0.6200
     21 C21        -7.5732    1.7072   53.5047 C.ar    1  ZINC000566738344   -0.1400
     22 C22        -6.7873    2.8367   53.5281 C.ar    1  ZINC000566738344   -0.0400
     23 C23        -6.1155    3.2432   52.3711 C.ar    1  ZINC000566738344   -0.0400
     24 C24        -5.2969    4.4180   52.3920 C.1     1  ZINC000566738344    0.2500
     25 N25        -4.6475    5.3500   52.4086 N.1     1  ZINC000566738344   -0.4100
     26 H26        -4.5534    2.4756   49.9013 H       1  ZINC000566738344    0.0800
     27 H27        -6.1155    2.6463   49.0654 H       1  ZINC000566738344    0.0800
     28 H28        -5.4222    4.0285   49.9470 H       1  ZINC000566738344    0.0700
     29 H29        -7.1449    0.8064   50.2631 H       1  ZINC000566738344    0.1400
     30 H30       -11.3491    0.4806   51.3672 H       1  ZINC000566738344    0.0800
     31 H31       -11.8640    1.4119   52.7940 H       1  ZINC000566738344    0.0800
     32 H32       -10.3603    1.8433   51.9449 H       1  ZINC000566738344    0.0900
     33 H33       -12.9736    0.8146   54.6013 H       1  ZINC000566738344    0.0700
     34 H34       -12.6066    0.0040   56.1429 H       1  ZINC000566738344    0.0800
     35 H35       -11.2984    0.7580   55.2005 H       1  ZINC000566738344    0.0800
     36 H36       -11.3680   -3.4762   55.6943 H       1  ZINC000566738344    0.1100
     37 H37       -12.0649   -2.2229   56.7594 H       1  ZINC000566738344    0.0900
     38 H38       -13.3960   -4.8143   55.7827 H       1  ZINC000566738344    0.1400
     39 H39       -13.1872   -4.2461   57.4725 H       1  ZINC000566738344    0.1400
     40 H40       -14.2854   -0.7570   55.4832 H       1  ZINC000566738344    0.1400
     41 H41       -14.9073   -1.7969   54.1659 H       1  ZINC000566738344    0.1500
     42 H42        -8.0888    1.3901   54.3992 H       1  ZINC000566738344    0.1200
     43 H43        -6.6860    3.4060   54.4402 H       1  ZINC000566738344    0.1400
@<TRIPOS>BOND
     1     1     2    1
     2     1    26    1
     3     1    27    1
     4     1    28    1
     5     2    23   ar
     6     2     3   ar
     7     3     4   ar
     8     3    29    1
     9     4     5    1
    10     4    21   ar
    11     5     6    1
    12     6     7    1
    13     6     8    1
    14     6     9    1
    15     8    30    1
    16     8    31    1
    17     8    32    1
    18     9    10    2
    19     9    11   am
    20    11    12    1
    21    11    13    1
    22    12    33    1
    23    12    34    1
    24    12    35    1
    25    13    14    1
    26    13    20    1
    27    13    15    1
    28    15    16    1
    29    15    36    1
    30    15    37    1
    31    16    17    1
    32    16    38    1
    33    16    39    1
    34    17    18    2
    35    17    19    2
    36    17    20    1
    37    20    40    1
    38    20    41    1
    39    21    22   ar
    40    21    42    1
    41    22    23   ar
    42    22    43    1
    43    23    24    1
    44    24    25    3
@<TRIPOS>SUBSTRUCTURE
     1 ZINC000566738344        1 TEMP              0 ****  ****    0 ROOT


##########                                Name:    ZINC000302023461
##########                DOCK_Rotatable_Bonds:                   3
##########                         Heavy_Atoms:                  25
##########                    Molecular_Weight:             356.362
##########                DOCK_Rotatable_Bonds:                   3
##########                       Formal_Charge:        -2.08616e-07
##########                     HBond_Acceptors:                   9
##########                        HBond_Donors:                   1
##########                         Heavy_Atoms:                  25
##########                          Grid_Score:          -26.216879
##########                     Grid_vdw_energy:          -26.086937
##########                      Grid_es_energy:           -0.129942
##########           Internal_energy_repulsive:           20.738146

@<TRIPOS>MOLECULE
ZINC000302023461
 37 40 1 0 0
SMALL
USER_CHARGES


@<TRIPOS>ATOM
      1 O1         -2.7799    6.5660   52.5994 O.2     1  ZINC000302023461   -0.1600
      2 N2         -3.5411    5.8241   52.0046 N.pl3   1  ZINC000302023461    0.0200
      3 O3         -4.7207    6.1118   51.9084 O.2     1  ZINC000302023461   -0.1300
      4 C4         -3.0313    4.5760   51.3934 C.ar    1  ZINC000302023461    0.0000
      5 C5         -1.6944    4.2491   51.5019 C.ar    1  ZINC000302023461   -0.0600
      6 C6         -1.2172    3.0830   50.9311 C.ar    1  ZINC000302023461   -0.0900
      7 C7         -2.0768    2.2404   50.2503 C.ar    1  ZINC000302023461   -0.0800
      8 C8         -3.4154    2.5609   50.1378 C.ar    1  ZINC000302023461   -0.0500
      9 C9         -3.8992    3.7289   50.7144 C.ar    1  ZINC000302023461   -0.1100
     10 S10        -5.6064    4.1417   50.5738 S.3     1  ZINC000302023461    0.1900
     11 C11        -6.4089    2.7796   51.3516 C.2     1  ZINC000302023461    0.2100
     12 N12        -5.8141    1.6954   51.7935 N.2     1  ZINC000302023461   -0.3200
     13 N13        -6.8137    0.8725   52.3372 N.pl3   1  ZINC000302023461   -0.4700
     14 C14        -7.9811    1.5368   52.1817 C.2     1  ZINC000302023461    0.3500
     15 C15        -9.3158    1.0613   52.6054 C.ar    1  ZINC000302023461   -0.0400
     16 C16       -10.3074    1.9790   52.9531 C.ar    1  ZINC000302023461   -0.0900
     17 C17       -11.5505    1.5329   53.3496 C.ar    1  ZINC000302023461   -0.1100
     18 C18       -11.8207    0.1721   53.4049 C.ar    1  ZINC000302023461    0.0800
     19 O19       -13.0517   -0.2457   53.8072 O.3     1  ZINC000302023461   -0.3000
     20 C20       -13.4070   -1.5970   53.4955 C.3     1  ZINC000302023461    0.0200
     21 C21       -12.2240   -2.5025   53.8635 C.3     1  ZINC000302023461    0.0200
     22 O22       -11.0866   -2.0859   53.1004 O.3     1  ZINC000302023461   -0.3000
     23 C23       -10.8364   -0.7484   53.0562 C.ar    1  ZINC000302023461    0.0500
     24 C24        -9.5886   -0.3063   52.6533 C.ar    1  ZINC000302023461   -0.0500
     25 N25        -7.7185    2.6861   51.5915 N.2     1  ZINC000302023461   -0.5000
     26 H26        -1.0203    4.9049   52.0329 H       1  ZINC000302023461    0.1600
     27 H27        -0.1708    2.8300   51.0170 H       1  ZINC000302023461    0.1500
     28 H28        -1.7008    1.3307   49.8059 H       1  ZINC000302023461    0.1500
     29 H29        -4.0860    1.9028   49.6054 H       1  ZINC000302023461    0.1600
     30 H30        -6.6909    0.0003   52.7436 H       1  ZINC000302023461    0.4400
     31 H31       -10.1015    3.0385   52.9120 H       1  ZINC000302023461    0.1300
     32 H32       -12.3170    2.2449   53.6185 H       1  ZINC000302023461    0.1500
     33 H33       -14.2857   -1.8881   54.0710 H       1  ZINC000302023461    0.1300
     34 H34       -13.6194   -1.6847   52.4299 H       1  ZINC000302023461    0.0800
     35 H35       -12.0069   -2.4095   54.9276 H       1  ZINC000302023461    0.0800
     36 H36       -12.4663   -3.5385   53.6263 H       1  ZINC000302023461    0.1300
     37 H37        -8.8250   -1.0196   52.3801 H       1  ZINC000302023461    0.1600
@<TRIPOS>BOND
     1     1     2    2
     2     2     3    2
     3     2     4    1
     4     4     9   ar
     5     4     5   ar
     6     5     6   ar
     7     5    26    1
     8     6     7   ar
     9     6    27    1
    10     7     8   ar
    11     7    28    1
    12     8     9   ar
    13     8    29    1
    14     9    10    1
    15    10    11    1
    16    11    25    1
    17    11    12    2
    18    12    13    1
    19    13    14    1
    20    13    30    1
    21    14    15    1
    22    14    25    2
    23    15    24   ar
    24    15    16   ar
    25    16    17   ar
    26    16    31    1
    27    17    18   ar
    28    17    32    1
    29    18    23   ar
    30    18    19    1
    31    19    20    1
    32    20    21    1
    33    20    33    1
    34    20    34    1
    35    21    22    1
    36    21    35    1
    37    21    36    1
    38    22    23    1
    39    23    24   ar
    40    24    37    1
@<TRIPOS>SUBSTRUCTURE
     1 ZINC000302023461        1 TEMP              0 ****  ****    0 ROOT


##########                                Name:    ZINC000464752079
##########                DOCK_Rotatable_Bonds:                   7
##########                         Heavy_Atoms:                  29
##########                    Molecular_Weight:             404.413
##########                DOCK_Rotatable_Bonds:                   7
##########                       Formal_Charge:         7.45058e-08
##########                     HBond_Acceptors:                   8
##########                        HBond_Donors:                   1
##########                         Heavy_Atoms:                  29
##########                          Grid_Score:          -26.122643
##########                     Grid_vdw_energy:          -26.222555
##########                      Grid_es_energy:            0.099914
##########           Internal_energy_repulsive:           15.680678

@<TRIPOS>MOLECULE
ZINC000464752079
 51 54 1 0 0
SMALL
USER_CHARGES


@<TRIPOS>ATOM
      1 C1        -13.7689   -1.0385   61.1307 C.3     1  ZINC000464752079   -0.1200
      2 C2        -13.2745   -1.6938   59.8668 C.ar    1  ZINC000464752079   -0.0800
      3 C3        -14.0907   -2.5715   59.1787 C.ar    1  ZINC000464752079   -0.1200
      4 C4        -13.6370   -3.1727   58.0192 C.ar    1  ZINC000464752079   -0.1200
      5 C5        -12.3675   -2.8958   57.5482 C.ar    1  ZINC000464752079   -0.1300
      6 C6        -11.5514   -2.0171   58.2361 C.ar    1  ZINC000464752079   -0.0900
      7 C7        -12.0064   -1.4127   59.3929 C.ar    1  ZINC000464752079   -0.0800
      8 C8        -11.1168   -0.4550   60.1428 C.3     1  ZINC000464752079    0.2000
      9 H9        -11.7237    0.2986   60.6448 H       1  ZINC000464752079    0.0900
     10 C10       -10.2726   -1.2253   61.1799 C.3     1  ZINC000464752079   -0.1200
     11 C11        -8.8985   -0.5081   61.1111 C.3     1  ZINC000464752079   -0.1300
     12 C12        -8.8041   -0.1605   59.6045 C.3     1  ZINC000464752079    0.1000
     13 N13       -10.1833    0.1944   59.2109 N.am    1  ZINC000464752079   -0.6300
     14 C14       -10.5258    0.9789   58.1699 C.2     1  ZINC000464752079    0.7200
     15 O15       -11.6980    1.2052   57.9391 O.2     1  ZINC000464752079   -0.5700
     16 N16        -9.5692    1.5126   57.3848 N.am    1  ZINC000464752079   -0.7400
     17 C17        -9.9415    2.3668   56.2544 C.3     1  ZINC000464752079    0.1900
     18 C18        -9.0275    2.0853   55.0897 C.ar    1  ZINC000464752079   -0.1200
     19 C19        -9.4584    1.2785   54.0535 C.ar    1  ZINC000464752079   -0.0500
     20 C20        -8.6206    1.0174   52.9817 C.ar    1  ZINC000464752079    0.0100
     21 C21        -7.3424    1.5693   52.9486 C.ar    1  ZINC000464752079    0.0800
     22 C22        -6.9131    2.3786   53.9877 C.ar    1  ZINC000464752079   -0.1800
     23 C23        -7.7570    2.6407   55.0562 C.ar    1  ZINC000464752079    0.1400
     24 O24        -7.3356    3.4354   56.0760 O.3     1  ZINC000464752079   -0.3100
     25 C25        -7.2306    4.8348   55.8071 C.3     1  ZINC000464752079    0.4100
     26 F26        -8.3221    5.2443   55.0336 F       1  ZINC000464752079   -0.2000
     27 F27        -7.2225    5.5424   57.0139 F       1  ZINC000464752079   -0.2000
     28 O28        -6.7225    1.1660   51.8013 O.3     1  ZINC000464752079   -0.3000
     29 C29        -7.4798    0.0350   51.3318 C.3     1  ZINC000464752079    0.2100
     30 O30        -8.8013    0.2678   51.8541 O.3     1  ZINC000464752079   -0.3000
     31 H31       -14.2673   -0.1012   60.8830 H       1  ZINC000464752079    0.0700
     32 H32       -14.4725   -1.7023   61.6330 H       1  ZINC000464752079    0.0700
     33 H33       -12.9246   -0.8377   61.7902 H       1  ZINC000464752079    0.0700
     34 H34       -15.0827   -2.7879   59.5467 H       1  ZINC000464752079    0.1200
     35 H35       -14.2746   -3.8591   57.4818 H       1  ZINC000464752079    0.1200
     36 H36       -12.0129   -3.3660   56.6429 H       1  ZINC000464752079    0.1200
     37 H37       -10.5592   -1.8010   57.8683 H       1  ZINC000464752079    0.1100
     38 H38       -10.7065   -1.1329   62.1756 H       1  ZINC000464752079    0.0900
     39 H39       -10.1753   -2.2732   60.8962 H       1  ZINC000464752079    0.0800
     40 H40        -8.8983    0.3952   61.7212 H       1  ZINC000464752079    0.0800
     41 H41        -8.0923   -1.1788   61.4085 H       1  ZINC000464752079    0.0900
     42 H42        -8.1373    0.6882   59.4520 H       1  ZINC000464752079    0.0700
     43 H43        -8.4566   -1.0238   59.0370 H       1  ZINC000464752079    0.0700
     44 H44        -8.6341    1.3311   57.5684 H       1  ZINC000464752079    0.4000
     45 H45       -10.9719    2.1591   55.9660 H       1  ZINC000464752079    0.0800
     46 H46        -9.8491    3.4135   56.5441 H       1  ZINC000464752079    0.0800
     47 H47       -10.4497    0.8507   54.0796 H       1  ZINC000464752079    0.1500
     48 H48        -5.9223    2.8077   53.9641 H       1  ZINC000464752079    0.1500
     49 H49        -6.3062    5.0321   55.2641 H       1  ZINC000464752079    0.1900
     50 H50        -7.4973    0.0115   50.2421 H       1  ZINC000464752079    0.1400
     51 H51        -7.0687   -0.8929   51.7294 H       1  ZINC000464752079    0.0900
@<TRIPOS>BOND
     1     1     2    1
     2     1    31    1
     3     1    32    1
     4     1    33    1
     5     2     7   ar
     6     2     3   ar
     7     3     4   ar
     8     3    34    1
     9     4     5   ar
    10     4    35    1
    11     5     6   ar
    12     5    36    1
    13     6     7   ar
    14     6    37    1
    15     7     8    1
    16     8     9    1
    17     8    13    1
    18     8    10    1
    19    10    11    1
    20    10    38    1
    21    10    39    1
    22    11    12    1
    23    11    40    1
    24    11    41    1
    25    12    13    1
    26    12    42    1
    27    12    43    1
    28    13    14   am
    29    14    15    2
    30    14    16   am
    31    16    17    1
    32    16    44    1
    33    17    18    1
    34    17    45    1
    35    17    46    1
    36    18    23   ar
    37    18    19   ar
    38    19    20   ar
    39    19    47    1
    40    20    30    1
    41    20    21   ar
    42    21    22   ar
    43    21    28    1
    44    22    23   ar
    45    22    48    1
    46    23    24    1
    47    24    25    1
    48    25    26    1
    49    25    27    1
    50    25    49    1
    51    28    29    1
    52    29    30    1
    53    29    50    1
    54    29    51    1
@<TRIPOS>SUBSTRUCTURE
     1 ZINC000464752079        1 TEMP              0 ****  ****    0 ROOT


##########                                Name:    ZINC000680410869
##########                DOCK_Rotatable_Bonds:                   6
##########                         Heavy_Atoms:                  24
##########                    Molecular_Weight:             335.354
##########                DOCK_Rotatable_Bonds:                   6
##########                       Formal_Charge:        -1.04308e-07
##########                     HBond_Acceptors:                   7
##########                        HBond_Donors:                   0
##########                         Heavy_Atoms:                  24
##########                          Grid_Score:          -26.010073
##########                     Grid_vdw_energy:          -24.915867
##########                      Grid_es_energy:           -1.094206
##########           Internal_energy_repulsive:           12.191081

@<TRIPOS>MOLECULE
ZINC000680410869
 43 45 1 0 0
SMALL
USER_CHARGES


@<TRIPOS>ATOM
      1 O1        -14.2826   -2.7821   61.9427 O.2     1  ZINC000680410869   -0.5200
      2 C2        -13.8234   -2.2855   60.9325 C.2     1  ZINC000680410869    0.6100
      3 C3        -12.4197   -1.8262   60.9075 C.2     1  ZINC000680410869    0.0100
      4 N4        -11.9499   -0.7107   61.4295 N.2     1  ZINC000680410869   -0.2500
      5 N5        -10.6843   -0.6273   61.2255 N.pl3   1  ZINC000680410869   -0.3500
      6 C6         -9.8354    0.4810   61.6696 C.3     1  ZINC000680410869    0.5000
      7 F7         -9.0698    0.9423   60.5933 F       1  ZINC000680410869   -0.1600
      8 F8        -10.6390    1.5206   62.1497 F       1  ZINC000680410869   -0.1700
      9 C9        -10.2489   -1.7084   60.5436 C.2     1  ZINC000680410869    0.0100
     10 C10       -11.3225   -2.5030   60.3239 C.2     1  ZINC000680410869   -0.1700
     11 N11       -14.5934   -2.1590   59.8336 N.am    1  ZINC000680410869   -0.6000
     12 C12       -15.9944   -2.6092   59.8344 C.3     1  ZINC000680410869    0.0800
     13 C13       -16.2158   -3.5029   58.6088 C.3     1  ZINC000680410869    0.0500
     14 O14       -15.7709   -2.8143   57.4376 O.3     1  ZINC000680410869   -0.3700
     15 C15       -14.3739   -2.5108   57.4322 C.3     1  ZINC000680410869    0.0800
     16 H16       -13.8009   -3.4314   57.5442 H       1  ZINC000680410869    0.0600
     17 C17       -14.0027   -1.8354   56.1106 C.3     1  ZINC000680410869   -0.1000
     18 C18       -12.9955   -2.7069   55.3576 C.3     1  ZINC000680410869   -0.0800
     19 C19       -12.3760   -1.9075   54.2403 C.ar    1  ZINC000680410869   -0.0800
     20 C20       -11.1430   -2.2709   53.7318 C.ar    1  ZINC000680410869   -0.1200
     21 C21       -10.5748   -1.5377   52.7070 C.ar    1  ZINC000680410869   -0.1200
     22 C22       -11.2397   -0.4414   52.1902 C.ar    1  ZINC000680410869   -0.1300
     23 C23       -12.4731   -0.0786   52.6982 C.ar    1  ZINC000680410869   -0.1200
     24 C24       -13.0434   -0.8144   53.7201 C.ar    1  ZINC000680410869   -0.1200
     25 C25       -14.0598   -1.5611   58.5995 C.3     1  ZINC000680410869    0.0600
     26 H26        -9.1740    0.1361   62.4644 H       1  ZINC000680410869    0.1700
     27 H27        -9.2328   -1.9047   60.2348 H       1  ZINC000680410869    0.1900
     28 H28       -11.3393   -3.4511   59.8070 H       1  ZINC000680410869    0.1700
     29 H29       -16.1974   -3.1756   60.7433 H       1  ZINC000680410869    0.1000
     30 H30       -16.6574   -1.7456   59.7837 H       1  ZINC000680410869    0.0800
     31 H31       -15.6495   -4.4270   58.7250 H       1  ZINC000680410869    0.0600
     32 H32       -17.2767   -3.7346   58.5140 H       1  ZINC000680410869    0.1100
     33 H33       -14.8988   -1.7083   55.5032 H       1  ZINC000680410869    0.0800
     34 H34       -13.5596   -0.8602   56.3128 H       1  ZINC000680410869    0.0800
     35 H35       -12.2157   -3.0366   56.0441 H       1  ZINC000680410869    0.0700
     36 H36       -13.5059   -3.5762   54.9429 H       1  ZINC000680410869    0.0800
     37 H37       -10.6235   -3.1274   54.1354 H       1  ZINC000680410869    0.1200
     38 H38        -9.6111   -1.8212   52.3101 H       1  ZINC000680410869    0.1200
     39 H39       -10.7954    0.1319   51.3900 H       1  ZINC000680410869    0.1200
     40 H40       -12.9925    0.7781   52.2947 H       1  ZINC000680410869    0.1200
     41 H41       -14.0069   -0.5310   54.1170 H       1  ZINC000680410869    0.1200
     42 H42       -14.5284   -0.5933   58.4215 H       1  ZINC000680410869    0.0800
     43 H43       -12.9808   -1.4360   58.6907 H       1  ZINC000680410869    0.1300
@<TRIPOS>BOND
     1     1     2    2
     2     2     3    1
     3     2    11   am
     4     3    10    1
     5     3     4    2
     6     4     5    1
     7     5     6    1
     8     5     9    1
     9     6     7    1
    10     6     8    1
    11     6    26    1
    12     9    10    2
    13     9    27    1
    14    10    28    1
    15    11    25    1
    16    11    12    1
    17    12    13    1
    18    12    29    1
    19    12    30    1
    20    13    14    1
    21    13    31    1
    22    13    32    1
    23    14    15    1
    24    15    16    1
    25    15    17    1
    26    15    25    1
    27    17    18    1
    28    17    33    1
    29    17    34    1
    30    18    19    1
    31    18    35    1
    32    18    36    1
    33    19    24   ar
    34    19    20   ar
    35    20    21   ar
    36    20    37    1
    37    21    22   ar
    38    21    38    1
    39    22    23   ar
    40    22    39    1
    41    23    24   ar
    42    23    40    1
    43    24    41    1
    44    25    42    1
    45    25    43    1
@<TRIPOS>SUBSTRUCTURE
     1 ZINC000680410869        1 TEMP              0 ****  ****    0 ROOT


##########                                Name:    ZINC000426607143
##########                DOCK_Rotatable_Bonds:                   3
##########                         Heavy_Atoms:                  25
##########                    Molecular_Weight:             419.302
##########                DOCK_Rotatable_Bonds:                   3
##########                       Formal_Charge:         1.49012e-07
##########                     HBond_Acceptors:                   7
##########                        HBond_Donors:                   0
##########                         Heavy_Atoms:                  25
##########                          Grid_Score:          -25.993238
##########                     Grid_vdw_energy:          -25.616629
##########                      Grid_es_energy:           -0.376610
##########           Internal_energy_repulsive:           10.537004

@<TRIPOS>MOLECULE
ZINC000426607143
 40 43 1 0 0
SMALL
USER_CHARGES


@<TRIPOS>ATOM
      1 C1         -9.8205    1.5941   55.3223 C.3     1  ZINC000426607143   -0.0900
      2 C2         -9.8623    0.5642   54.2229 C.2     1  ZINC000426607143    0.1600
      3 N3         -9.0106    0.5802   53.2438 N.2     1  ZINC000426607143   -0.4600
      4 S4         -9.3811   -0.7227   52.2243 S.3     1  ZINC000426607143    0.2900
      5 C5        -10.7153   -1.2954   53.1470 C.2     1  ZINC000426607143   -0.1300
      6 C6        -11.5899   -2.4849   52.8448 C.3     1  ZINC000426607143   -0.0800
      7 C7        -10.8105   -0.4501   54.2123 C.2     1  ZINC000426607143   -0.1200
      8 C8        -11.8449   -0.5958   55.2652 C.2     1  ZINC000426607143    0.2500
      9 N9        -13.1147   -0.8486   55.0770 N.2     1  ZINC000426607143   -0.3700
     10 O10       -13.6904   -0.9061   56.1429 O.3     1  ZINC000426607143    0.0900
     11 C11       -12.8282   -0.6912   57.1415 C.2     1  ZINC000426607143    0.2000
     12 C12       -13.1488   -0.6795   58.6138 C.3     1  ZINC000426607143   -0.0300
     13 H13       -14.0940   -0.1674   58.7935 H       1  ZINC000426607143    0.1600
     14 C14       -13.2012   -2.1222   59.1678 C.3     1  ZINC000426607143   -0.1200
     15 C15       -12.5937   -1.9410   60.5766 C.3     1  ZINC000426607143    0.1000
     16 N16       -11.7373   -0.7527   60.4838 N.am    1  ZINC000426607143   -0.5800
     17 C17       -10.7425   -0.4219   61.4110 C.ar    1  ZINC000426607143    0.1700
     18 C18        -9.4542   -0.9144   61.2545 C.ar    1  ZINC000426607143   -0.1000
     19 C19        -8.4743   -0.5861   62.1715 C.ar    1  ZINC000426607143   -0.1000
     20 C20        -8.7755    0.2317   63.2448 C.ar    1  ZINC000426607143   -0.1000
     21 C21       -10.0579    0.7243   63.4043 C.ar    1  ZINC000426607143   -0.0900
     22 C22       -11.0410    0.4049   62.4875 C.ar    1  ZINC000426607143   -0.0800
     23 Br23      -12.7943    1.0787   62.7060 Br      1  ZINC000426607143   -0.0400
     24 C24       -12.0326   -0.0199   59.3935 C.2     1  ZINC000426607143    0.5300
     25 O25       -11.4814    1.0146   59.0815 O.2     1  ZINC000426607143   -0.4900
     26 N26       -11.6513   -0.4978   56.6002 N.2     1  ZINC000426607143   -0.4600
     27 H27        -9.1737    1.2417   56.1258 H       1  ZINC000426607143    0.0900
     28 H28        -9.4305    2.5320   54.9270 H       1  ZINC000426607143    0.0800
     29 H29       -10.8269    1.7534   55.7094 H       1  ZINC000426607143    0.1100
     30 H30       -11.2534   -2.9585   51.9226 H       1  ZINC000426607143    0.0800
     31 H31       -11.5263   -3.2002   53.6648 H       1  ZINC000426607143    0.0900
     32 H32       -12.6227   -2.1561   52.7286 H       1  ZINC000426607143    0.0900
     33 H33       -14.2291   -2.4794   59.2293 H       1  ZINC000426607143    0.1100
     34 H34       -12.5917   -2.7943   58.5637 H       1  ZINC000426607143    0.1000
     35 H35       -13.3838   -1.7801   61.3101 H       1  ZINC000426607143    0.0900
     36 H36       -11.9996   -2.8141   60.8463 H       1  ZINC000426607143    0.0900
     37 H37        -9.2180   -1.5538   60.4169 H       1  ZINC000426607143    0.1400
     38 H38        -7.4719   -0.9691   62.0500 H       1  ZINC000426607143    0.1400
     39 H39        -8.0077    0.4860   63.9605 H       1  ZINC000426607143    0.1400
     40 H40       -10.2900    1.3629   64.2438 H       1  ZINC000426607143    0.1400
@<TRIPOS>BOND
     1     1     2    1
     2     1    27    1
     3     1    28    1
     4     1    29    1
     5     2     7    1
     6     2     3    2
     7     3     4    1
     8     4     5    1
     9     5     6    1
    10     5     7    2
    11     6    30    1
    12     6    31    1
    13     6    32    1
    14     7     8    1
    15     8    26    1
    16     8     9    2
    17     9    10    1
    18    10    11    1
    19    11    12    1
    20    11    26    2
    21    12    13    1
    22    12    24    1
    23    12    14    1
    24    14    15    1
    25    14    33    1
    26    14    34    1
    27    15    16    1
    28    15    35    1
    29    15    36    1
    30    16    17    1
    31    16    24   am
    32    17    22   ar
    33    17    18   ar
    34    18    19   ar
    35    18    37    1
    36    19    20   ar
    37    19    38    1
    38    20    21   ar
    39    20    39    1
    40    21    22   ar
    41    21    40    1
    42    22    23    1
    43    24    25    2
@<TRIPOS>SUBSTRUCTURE
     1 ZINC000426607143        1 TEMP              0 ****  ****    0 ROOT


##########                                Name:    ZINC000654672208
##########                DOCK_Rotatable_Bonds:                   5
##########                         Heavy_Atoms:                  25
##########                    Molecular_Weight:             365.497
##########                DOCK_Rotatable_Bonds:                   5
##########                       Formal_Charge:           0.0100001
##########                     HBond_Acceptors:                   7
##########                        HBond_Donors:                   1
##########                         Heavy_Atoms:                  25
##########                          Grid_Score:          -25.931694
##########                     Grid_vdw_energy:          -25.411598
##########                      Grid_es_energy:           -0.520096
##########           Internal_energy_repulsive:           15.041663

@<TRIPOS>MOLECULE
ZINC000654672208
 52 54 1 0 0
SMALL
USER_CHARGES


@<TRIPOS>ATOM
      1 C1        -16.1398    1.3995   51.6716 C.3     1  ZINC000654672208   -0.1100
      2 C2        -15.0863    0.5359   52.3160 C.ar    1  ZINC000654672208   -0.1300
      3 C3        -15.3805   -0.1988   53.4486 C.ar    1  ZINC000654672208    0.1000
      4 N4        -14.4639   -0.9572   54.0179 N.ar    1  ZINC000654672208   -0.4700
      5 C5        -13.2400   -1.0459   53.5353 C.ar    1  ZINC000654672208    0.1200
      6 C6        -12.2301   -1.9273   54.2240 C.3     1  ZINC000654672208   -0.0900
      7 C7        -12.9575   -3.0319   54.9930 C.3     1  ZINC000654672208    0.1500
      8 N8        -13.1848   -2.5975   56.3735 N.am    1  ZINC000654672208   -0.7500
      9 C9        -12.2045   -2.7237   57.2898 C.2     1  ZINC000654672208    0.7100
     10 O10       -11.1315   -3.1982   56.9706 O.2     1  ZINC000654672208   -0.5800
     11 N11       -12.4136   -2.3241   58.5598 N.am    1  ZINC000654672208   -0.6300
     12 C12       -13.7050   -1.7490   58.9600 C.3     1  ZINC000654672208    0.1300
     13 C13       -13.4542   -0.3923   59.6257 C.3     1  ZINC000654672208   -0.1400
     14 C14       -12.4615   -0.5683   60.7764 C.3     1  ZINC000654672208   -0.1100
     15 C15       -11.1275   -1.0870   60.2263 C.3     1  ZINC000654672208   -0.0600
     16 C16       -10.1356   -1.2470   61.3831 C.3     1  ZINC000654672208   -0.1200
     17 C17        -8.6992   -1.0361   60.8393 C.3     1  ZINC000654672208   -0.5800
     18 S18        -8.9487    0.4047   59.7253 S.o2    1  ZINC000654672208    2.3800
     19 O19        -9.0503    1.5930   60.4979 O.2     1  ZINC000654672208   -0.9300
     20 O20        -8.0308    0.3353   58.6428 O.2     1  ZINC000654672208   -0.9300
     21 C21       -10.6148   -0.1049   59.1591 C.3     1  ZINC000654672208   -0.5800
     22 C22       -11.3566   -2.4611   59.5705 C.3     1  ZINC000654672208    0.1200
     23 C23       -12.8729   -0.3402   52.4050 C.ar    1  ZINC000654672208   -0.1200
     24 C24       -11.4720   -0.4477   51.8599 C.3     1  ZINC000654672208   -0.1200
     25 C25       -13.8109    0.4639   51.7762 C.ar    1  ZINC000654672208   -0.0800
     26 H26       -16.6861    0.8150   50.9313 H       1  ZINC000654672208    0.0700
     27 H27       -16.8316    1.7583   52.4338 H       1  ZINC000654672208    0.0700
     28 H28       -15.6638    2.2501   51.1836 H       1  ZINC000654672208    0.0700
     29 H29       -16.3726   -0.1510   53.8730 H       1  ZINC000654672208    0.1600
     30 H30       -11.5718   -2.3756   53.4797 H       1  ZINC000654672208    0.0900
     31 H31       -11.6396   -1.3295   54.9183 H       1  ZINC000654672208    0.0900
     32 H32       -13.9150   -3.2378   54.5145 H       1  ZINC000654672208    0.0700
     33 H33       -12.3491   -3.9364   54.9923 H       1  ZINC000654672208    0.0700
     34 H34       -14.0408   -2.2191   56.6281 H       1  ZINC000654672208    0.3900
     35 H35       -14.3334   -1.6138   58.0797 H       1  ZINC000654672208    0.1000
     36 H36       -14.1994   -2.4166   59.6657 H       1  ZINC000654672208    0.0700
     37 H37       -13.0425    0.3018   58.8930 H       1  ZINC000654672208    0.0700
     38 H38       -14.3938    0.0021   60.0129 H       1  ZINC000654672208    0.0800
     39 H39       -12.3028    0.3908   61.2693 H       1  ZINC000654672208    0.0800
     40 H40       -12.8612   -1.2841   61.4947 H       1  ZINC000654672208    0.0800
     41 H41       -10.3483   -0.5056   62.1534 H       1  ZINC000654672208    0.1000
     42 H42       -10.2242   -2.2476   61.8060 H       1  ZINC000654672208    0.1000
     43 H43        -8.0065   -0.7935   61.6451 H       1  ZINC000654672208    0.1400
     44 H44        -8.3590   -1.9087   60.2817 H       1  ZINC000654672208    0.1400
     45 H45       -10.5488   -0.6007   58.1907 H       1  ZINC000654672208    0.1400
     46 H46       -11.2732    0.7615   59.0962 H       1  ZINC000654672208    0.1400
     47 H47       -11.6598   -3.1823   60.3294 H       1  ZINC000654672208    0.0800
     48 H48       -10.4363   -2.7957   59.0919 H       1  ZINC000654672208    0.0800
     49 H49       -11.4239   -1.2651   51.1402 H       1  ZINC000654672208    0.0800
     50 H50       -11.2011    0.4862   51.3675 H       1  ZINC000654672208    0.0700
     51 H51       -10.7779   -0.6421   52.6775 H       1  ZINC000654672208    0.0700
     52 H52       -13.5524    1.0267   50.8915 H       1  ZINC000654672208    0.1300
@<TRIPOS>BOND
     1     1     2    1
     2     1    26    1
     3     1    27    1
     4     1    28    1
     5     2    25   ar
     6     2     3   ar
     7     3     4   ar
     8     3    29    1
     9     4     5   ar
    10     5     6    1
    11     5    23   ar
    12     6     7    1
    13     6    30    1
    14     6    31    1
    15     7     8    1
    16     7    32    1
    17     7    33    1
    18     8     9   am
    19     8    34    1
    20     9    10    2
    21     9    11   am
    22    11    22    1
    23    11    12    1
    24    12    13    1
    25    12    35    1
    26    12    36    1
    27    13    14    1
    28    13    37    1
    29    13    38    1
    30    14    15    1
    31    14    39    1
    32    14    40    1
    33    15    21    1
    34    15    16    1
    35    15    22    1
    36    16    17    1
    37    16    41    1
    38    16    42    1
    39    17    18    1
    40    17    43    1
    41    17    44    1
    42    18    19    2
    43    18    20    2
    44    18    21    1
    45    21    45    1
    46    21    46    1
    47    22    47    1
    48    22    48    1
    49    23    24    1
    50    23    25   ar
    51    24    49    1
    52    24    50    1
    53    24    51    1
    54    25    52    1
@<TRIPOS>SUBSTRUCTURE
     1 ZINC000654672208        1 TEMP              0 ****  ****    0 ROOT


##########                                Name:    ZINC000179211660
##########                DOCK_Rotatable_Bonds:                   6
##########                         Heavy_Atoms:                  23
##########                    Molecular_Weight:             385.208
##########                DOCK_Rotatable_Bonds:                   6
##########                       Formal_Charge:        -1.78814e-07
##########                     HBond_Acceptors:                   6
##########                        HBond_Donors:                   1
##########                         Heavy_Atoms:                  23
##########                          Grid_Score:          -25.891193
##########                     Grid_vdw_energy:          -26.239258
##########                      Grid_es_energy:            0.348064
##########           Internal_energy_repulsive:           14.432425

@<TRIPOS>MOLECULE
ZINC000179211660
 38 39 1 0 0
SMALL
USER_CHARGES


@<TRIPOS>ATOM
      1 C1         -5.2239    1.5993   51.6054 C.3     1  ZINC000179211660    0.0300
      2 O2         -6.2400    2.0896   52.4824 O.3     1  ZINC000179211660   -0.2700
      3 C3         -7.3545    1.3248   52.6239 C.ar    1  ZINC000179211660    0.1500
      4 C4         -7.4602    0.1189   51.9466 C.ar    1  ZINC000179211660   -0.2200
      5 C5         -8.5941   -0.6569   52.0925 C.ar    1  ZINC000179211660   -0.0700
      6 C6         -9.6230   -0.2321   52.9122 C.ar    1  ZINC000179211660   -0.1700
      7 C7         -9.5203    0.9699   53.5882 C.ar    1  ZINC000179211660   -0.0700
      8 C8         -8.3862    1.7464   53.4505 C.ar    1  ZINC000179211660   -0.1500
      9 C9         -8.2747    3.0559   54.1878 C.3     1  ZINC000179211660    0.1800
     10 N10        -7.5928    2.8399   55.4663 N.am    1  ZINC000179211660   -0.6200
     11 C11        -6.1515    3.0780   55.5772 C.3     1  ZINC000179211660    0.0700
     12 C12        -8.2914    2.4223   56.5405 C.2     1  ZINC000179211660    0.7000
     13 O13        -9.4873    2.2232   56.4481 O.2     1  ZINC000179211660   -0.5300
     14 N14        -7.6644    2.2252   57.7172 N.am    1  ZINC000179211660   -0.6800
     15 C15        -8.3905    1.7909   58.8339 C.ar    1  ZINC000179211660    0.1900
     16 C16        -8.4899    0.4357   59.1139 C.ar    1  ZINC000179211660   -0.1400
     17 C17        -9.2074    0.0094   60.2178 C.ar    1  ZINC000179211660    0.1500
     18 F18        -9.3046   -1.3101   60.4911 F       1  ZINC000179211660   -0.1100
     19 C19        -9.8254    0.9345   61.0429 C.ar    1  ZINC000179211660   -0.1300
     20 Br20      -10.8046    0.3486   62.5510 Br      1  ZINC000179211660   -0.0100
     21 C21        -9.7273    2.2866   60.7658 C.ar    1  ZINC000179211660   -0.0700
     22 C22        -9.0080    2.7178   59.6667 C.ar    1  ZINC000179211660    0.0600
     23 F23        -8.9125    4.0381   59.3968 F       1  ZINC000179211660   -0.1300
     24 H24        -4.3920    2.3034   51.5836 H       1  ZINC000179211660    0.1000
     25 H25        -4.8717    0.6316   51.9624 H       1  ZINC000179211660    0.0500
     26 H26        -5.6329    1.4892   50.6010 H       1  ZINC000179211660    0.0500
     27 H27        -6.6570   -0.2130   51.3055 H       1  ZINC000179211660    0.1300
     28 H28        -8.6768   -1.5959   51.5653 H       1  ZINC000179211660    0.1200
     29 H29       -10.5087   -0.8398   53.0247 H       1  ZINC000179211660    0.1200
     30 H30       -10.3256    1.2998   54.2277 H       1  ZINC000179211660    0.1300
     31 H31        -7.7040    3.7638   53.5867 H       1  ZINC000179211660    0.0900
     32 H32        -9.2719    3.4559   54.3709 H       1  ZINC000179211660    0.1000
     33 H33        -5.9755    4.1141   55.8664 H       1  ZINC000179211660    0.0600
     34 H34        -5.7305    2.4135   56.3317 H       1  ZINC000179211660    0.0600
     35 H35        -5.6761    2.8835   54.6157 H       1  ZINC000179211660    0.0800
     36 H36        -6.7103    2.3839   57.7909 H       1  ZINC000179211660    0.4100
     37 H37        -8.0082   -0.2859   58.4709 H       1  ZINC000179211660    0.1800
     38 H38       -10.2101    3.0059   61.4108 H       1  ZINC000179211660    0.1600
@<TRIPOS>BOND
     1     1     2    1
     2     1    24    1
     3     1    25    1
     4     1    26    1
     5     2     3    1
     6     3     8   ar
     7     3     4   ar
     8     4     5   ar
     9     4    27    1
    10     5     6   ar
    11     5    28    1
    12     6     7   ar
    13     6    29    1
    14     7     8   ar
    15     7    30    1
    16     8     9    1
    17     9    10    1
    18     9    31    1
    19     9    32    1
    20    10    11    1
    21    10    12   am
    22    11    33    1
    23    11    34    1
    24    11    35    1
    25    12    13    2
    26    12    14   am
    27    14    15    1
    28    14    36    1
    29    15    22   ar
    30    15    16   ar
    31    16    17   ar
    32    16    37    1
    33    17    18    1
    34    17    19   ar
    35    19    20    1
    36    19    21   ar
    37    21    22   ar
    38    21    38    1
    39    22    23    1
@<TRIPOS>SUBSTRUCTURE
     1 ZINC000179211660        1 TEMP              0 ****  ****    0 ROOT


##########                                Name:    ZINC000438893617
##########                DOCK_Rotatable_Bonds:                   5
##########                         Heavy_Atoms:                  29
##########                    Molecular_Weight:             412.596
##########                DOCK_Rotatable_Bonds:                   5
##########                       Formal_Charge:           0.0600001
##########                     HBond_Acceptors:                   5
##########                        HBond_Donors:                   0
##########                         Heavy_Atoms:                  29
##########                          Grid_Score:          -25.876562
##########                     Grid_vdw_energy:          -25.575588
##########                      Grid_es_energy:           -0.300973
##########           Internal_energy_repulsive:          168.985092

@<TRIPOS>MOLECULE
ZINC000438893617
 61 66 1 0 0
SMALL
USER_CHARGES


@<TRIPOS>ATOM
      1 C1         -7.5960    5.1868   50.6276 C.3     1  ZINC000438893617   -0.1000
      2 C2         -8.7142    4.3206   51.1474 C.2     1  ZINC000438893617   -0.0900
      3 C3         -8.5767    3.0070   51.3340 C.2     1  ZINC000438893617   -0.1600
      4 C4         -7.3222    2.2174   51.0622 C.3     1  ZINC000438893617   -0.0400
      5 H5         -7.2383    1.7988   50.0593 H       1  ZINC000438893617    0.1400
      6 C6         -6.7339    1.4058   52.2180 C.3     1  ZINC000438893617   -0.1400
      7 C7         -6.0337    2.6817   51.7440 C.3     1  ZINC000438893617   -0.1800
      8 H8         -6.0932    3.5580   52.3894 H       1  ZINC000438893617    0.1300
      9 C9         -4.7451    2.5248   50.9783 C.2     1  ZINC000438893617    0.5500
     10 O10        -4.7711    2.2487   49.7976 O.2     1  ZINC000438893617   -0.5300
     11 N11        -3.5639    2.6915   51.6056 N.am    1  ZINC000438893617   -0.6100
     12 C12        -2.2997    2.5459   50.8708 C.3     1  ZINC000438893617    0.0900
     13 C13        -1.4779    3.8284   51.0506 C.3     1  ZINC000438893617    0.1000
     14 N14        -1.4313    4.1595   52.4817 N.am    1  ZINC000438893617   -0.6100
     15 C15        -0.2501    4.3272   53.1088 C.2     1  ZINC000438893617    0.5300
     16 O16        -0.2243    4.6003   54.2902 O.2     1  ZINC000438893617   -0.5300
     17 C17         1.0383    4.1752   52.3421 C.3     1  ZINC000438893617   -0.0700
     18 C18         2.2207    4.4633   53.2694 C.3     1  ZINC000438893617   -0.1100
     19 C19         3.5287    4.3089   52.4909 C.3     1  ZINC000438893617   -0.0800
     20 C20         3.5456    5.2953   51.3214 C.3     1  ZINC000438893617   -0.1100
     21 C21         2.3633    5.0071   50.3941 C.3     1  ZINC000438893617   -0.0800
     22 C22         2.4721    3.5783   49.8578 C.3     1  ZINC000438893617   -0.1100
     23 C23         2.4552    2.5920   51.0273 C.3     1  ZINC000438893617   -0.0900
     24 C24         3.6376    2.8801   51.9547 C.3     1  ZINC000438893617   -0.1100
     25 C25         1.1471    2.7463   51.8059 C.3     1  ZINC000438893617   -0.0900
     26 C26         1.0552    5.1615   51.1725 C.3     1  ZINC000438893617   -0.1200
     27 C27        -2.6956    4.3050   53.2166 C.3     1  ZINC000438893617    0.0700
     28 C28        -3.5175    3.0281   53.0354 C.3     1  ZINC000438893617    0.1000
     29 S29       -10.0834    2.3375   51.9464 S.3     1  ZINC000438893617    0.1000
     30 C30       -10.8375    3.9261   51.9136 C.2     1  ZINC000438893617   -0.2100
     31 C31        -9.9600    4.8287   51.4727 C.2     1  ZINC000438893617   -0.1300
     32 H32        -7.0075    5.5619   51.4650 H       1  ZINC000438893617    0.0700
     33 H33        -6.9568    4.5987   49.9690 H       1  ZINC000438893617    0.0700
     34 H34        -8.0146    6.0266   50.0729 H       1  ZINC000438893617    0.0700
     35 H35        -7.2542    1.4429   53.1751 H       1  ZINC000438893617    0.1100
     36 H36        -6.2626    0.4533   51.9755 H       1  ZINC000438893617    0.1100
     37 H37        -1.7427    1.6962   51.2656 H       1  ZINC000438893617    0.0800
     38 H38        -2.5076    2.3902   49.8122 H       1  ZINC000438893617    0.1000
     39 H39        -0.4657    3.6694   50.6787 H       1  ZINC000438893617    0.1100
     40 H40        -1.9481    4.6441   50.5015 H       1  ZINC000438893617    0.0700
     41 H41         2.1432    5.4812   53.6514 H       1  ZINC000438893617    0.0800
     42 H42         2.2086    3.7606   54.1026 H       1  ZINC000438893617    0.0700
     43 H43         4.3711    4.5143   53.1515 H       1  ZINC000438893617    0.0800
     44 H44         3.4681    6.3132   51.7034 H       1  ZINC000438893617    0.0600
     45 H45         4.4776    5.1853   50.7668 H       1  ZINC000438893617    0.0700
     46 H46         2.3753    5.7098   49.5609 H       1  ZINC000438893617    0.0800
     47 H47         1.6298    3.3730   49.1972 H       1  ZINC000438893617    0.0600
     48 H48         3.4039    3.4684   49.3032 H       1  ZINC000438893617    0.0700
     49 H49         2.5327    1.5740   50.6454 H       1  ZINC000438893617    0.0700
     50 H50         4.5695    2.7702   51.4001 H       1  ZINC000438893617    0.0700
     51 H51         3.6256    2.1774   52.7878 H       1  ZINC000438893617    0.0600
     52 H52         1.1351    2.0437   52.6391 H       1  ZINC000438893617    0.0700
     53 H53         0.3047    2.5411   51.1453 H       1  ZINC000438893617    0.0700
     54 H54         0.2128    4.9562   50.5119 H       1  ZINC000438893617    0.0700
     55 H55         0.9777    6.1793   51.5546 H       1  ZINC000438893617    0.0800
     56 H56        -2.4877    4.4608   54.2751 H       1  ZINC000438893617    0.1300
     57 H57        -3.2525    5.1548   52.8217 H       1  ZINC000438893617    0.0800
     58 H58        -4.5293    3.1884   53.4078 H       1  ZINC000438893617    0.1100
     59 H59        -3.0487    2.2106   53.5833 H       1  ZINC000438893617    0.0700
     60 H60       -11.8542    4.1388   52.2095 H       1  ZINC000438893617    0.1700
     61 H61       -10.2054    5.8755   51.3698 H       1  ZINC000438893617    0.1400
@<TRIPOS>BOND
     1     1     2    1
     2     1    32    1
     3     1    33    1
     4     1    34    1
     5     2    31    1
     6     2     3    2
     7     3     4    1
     8     3    29    1
     9     4     5    1
    10     4     7    1
    11     4     6    1
    12     6     7    1
    13     6    35    1
    14     6    36    1
    15     7     8    1
    16     7     9    1
    17     9    10    2
    18     9    11   am
    19    11    28    1
    20    11    12    1
    21    12    13    1
    22    12    37    1
    23    12    38    1
    24    13    14    1
    25    13    39    1
    26    13    40    1
    27    14    15   am
    28    14    27    1
    29    15    16    2
    30    15    17    1
    31    17    25    1
    32    17    26    1
    33    17    18    1
    34    18    19    1
    35    18    41    1
    36    18    42    1
    37    19    24    1
    38    19    20    1
    39    19    43    1
    40    20    21    1
    41    20    44    1
    42    20    45    1
    43    21    22    1
    44    21    26    1
    45    21    46    1
    46    22    23    1
    47    22    47    1
    48    22    48    1
    49    23    24    1
    50    23    25    1
    51    23    49    1
    52    24    50    1
    53    24    51    1
    54    25    52    1
    55    25    53    1
    56    26    54    1
    57    26    55    1
    58    27    28    1
    59    27    56    1
    60    27    57    1
    61    28    58    1
    62    28    59    1
    63    29    30    1
    64    30    31    2
    65    30    60    1
    66    31    61    1
@<TRIPOS>SUBSTRUCTURE
     1 ZINC000438893617        1 TEMP              0 ****  ****    0 ROOT


##########                                Name:    ZINC000915315870
##########                DOCK_Rotatable_Bonds:                   4
##########                         Heavy_Atoms:                  24
##########                    Molecular_Weight:             357.381
##########                DOCK_Rotatable_Bonds:                   4
##########                       Formal_Charge:           0.0300002
##########                     HBond_Acceptors:                   9
##########                        HBond_Donors:                   1
##########                         Heavy_Atoms:                  24
##########                          Grid_Score:          -25.875797
##########                     Grid_vdw_energy:          -25.459850
##########                      Grid_es_energy:           -0.415946
##########           Internal_energy_repulsive:           35.515781

@<TRIPOS>MOLECULE
ZINC000915315870
 41 43 1 0 0
SMALL
USER_CHARGES


@<TRIPOS>ATOM
      1 C1         -6.1143    2.0669   51.6195 C.3     1  ZINC000915315870    0.0300
      2 O2         -7.4333    2.6019   51.7470 O.3     1  ZINC000915315870   -0.3200
      3 C3         -8.4531    1.7093   51.8620 C.ar    1  ZINC000915315870    0.0800
      4 C4         -9.7661    2.1568   51.9199 C.ar    1  ZINC000915315870    0.0900
      5 F5        -10.0327    3.4800   51.8614 F       1  ZINC000915315870   -0.1100
      6 C6        -10.8014    1.2462   52.0368 C.ar    1  ZINC000915315870   -0.0500
      7 C7        -10.5294   -0.1080   52.0968 C.ar    1  ZINC000915315870   -0.6300
      8 S8        -11.8504   -1.2643   52.2464 S.o2    1  ZINC000915315870    2.7000
      9 O9        -12.7820   -0.9440   51.2223 O.2     1  ZINC000915315870   -0.9400
     10 O10       -11.2494   -2.5452   52.3775 O.2     1  ZINC000915315870   -0.9400
     11 N11       -12.6117   -0.9554   53.6843 N.am    1  ZINC000915315870   -1.1100
     12 C12       -11.8672   -1.0503   54.9424 C.3     1  ZINC000915315870    0.2400
     13 H13       -10.8810   -1.4750   54.7550 H       1  ZINC000915315870    0.0900
     14 C14       -11.7204    0.3446   55.5634 C.3     1  ZINC000915315870   -0.1400
     15 C15       -11.1631    0.2217   56.9832 C.3     1  ZINC000915315870   -0.1100
     16 C16       -12.2373   -0.3556   57.9134 C.3     1  ZINC000915315870   -0.0400
     17 C17       -12.7941   -1.6040   57.2732 C.2     1  ZINC000915315870    0.0900
     18 N18       -13.4909   -2.5527   57.8281 N.2     1  ZINC000915315870   -0.2900
     19 N19       -13.7852   -3.5101   56.8455 N.pl3   1  ZINC000915315870   -0.3800
     20 C20       -14.5521   -4.7422   57.0459 C.3     1  ZINC000915315870    0.1000
     21 C21       -13.2372   -3.0955   55.6811 C.2     1  ZINC000915315870    0.0800
     22 C22       -12.6209   -1.9231   55.9154 C.2     1  ZINC000915315870   -0.2500
     23 C23        -9.2231   -0.5568   52.0390 C.ar    1  ZINC000915315870   -0.0500
     24 C24        -8.1836    0.3484   51.9162 C.ar    1  ZINC000915315870    0.1000
     25 F25        -6.9074   -0.0909   51.8598 F       1  ZINC000915315870   -0.1100
     26 H26        -5.3975    2.8838   51.5363 H       1  ZINC000915315870    0.1100
     27 H27        -5.8797    1.4657   52.4979 H       1  ZINC000915315870    0.0600
     28 H28        -6.0598    1.4434   50.7272 H       1  ZINC000915315870    0.0500
     29 H29       -11.8230    1.5937   52.0819 H       1  ZINC000915315870    0.1700
     30 H30       -13.5505   -0.7117   53.6935 H       1  ZINC000915315870    0.4200
     31 H31       -11.0393    0.9417   54.9569 H       1  ZINC000915315870    0.0900
     32 H32       -12.6954    0.8308   55.5973 H       1  ZINC000915315870    0.0800
     33 H33       -10.2963   -0.4392   56.9764 H       1  ZINC000915315870    0.0700
     34 H34       -10.8643    1.2066   57.3419 H       1  ZINC000915315870    0.0800
     35 H35       -11.7941   -0.6032   58.8779 H       1  ZINC000915315870    0.0800
     36 H36       -13.0352    0.3743   58.0512 H       1  ZINC000915315870    0.0900
     37 H37       -15.6089   -4.5455   56.8663 H       1  ZINC000915315870    0.0800
     38 H38       -14.2013   -5.5054   56.3513 H       1  ZINC000915315870    0.0900
     39 H39       -14.4164   -5.0922   58.0692 H       1  ZINC000915315870    0.0900
     40 H40       -13.2854   -3.6122   54.7340 H       1  ZINC000915315870    0.1700
     41 H41        -9.0138   -1.6153   52.0856 H       1  ZINC000915315870    0.1700
@<TRIPOS>BOND
     1     1     2    1
     2     1    26    1
     3     1    27    1
     4     1    28    1
     5     2     3    1
     6     3    24   ar
     7     3     4   ar
     8     4     5    1
     9     4     6   ar
    10     6     7   ar
    11     6    29    1
    12     7     8    1
    13     7    23   ar
    14     8     9    2
    15     8    10    2
    16     8    11   am
    17    11    12    1
    18    11    30    1
    19    12    13    1
    20    12    22    1
    21    12    14    1
    22    14    15    1
    23    14    31    1
    24    14    32    1
    25    15    16    1
    26    15    33    1
    27    15    34    1
    28    16    17    1
    29    16    35    1
    30    16    36    1
    31    17    22    1
    32    17    18    2
    33    18    19    1
    34    19    20    1
    35    19    21    1
    36    20    37    1
    37    20    38    1
    38    20    39    1
    39    21    22    2
    40    21    40    1
    41    23    24   ar
    42    23    41    1
    43    24    25    1
@<TRIPOS>SUBSTRUCTURE
     1 ZINC000915315870        1 TEMP              0 ****  ****    0 ROOT


##########                                Name:    ZINC000464706598
##########                DOCK_Rotatable_Bonds:                   4
##########                         Heavy_Atoms:                  26
##########                    Molecular_Weight:             412.286
##########                DOCK_Rotatable_Bonds:                   4
##########                       Formal_Charge:           0.0100001
##########                     HBond_Acceptors:                   5
##########                        HBond_Donors:                   0
##########                         Heavy_Atoms:                  26
##########                          Grid_Score:          -25.853134
##########                     Grid_vdw_energy:          -26.410797
##########                      Grid_es_energy:            0.557663
##########           Internal_energy_repulsive:           55.743046

@<TRIPOS>MOLECULE
ZINC000464706598
 44 47 1 0 0
SMALL
USER_CHARGES


@<TRIPOS>ATOM
      1 O1        -11.9844   -2.6272   58.7660 O.2     1  ZINC000464706598   -0.5000
      2 C2        -11.3144   -1.6140   58.7066 C.2     1  ZINC000464706598    0.5900
      3 C3        -10.4193   -1.2559   59.8218 C.2     1  ZINC000464706598   -0.2800
      4 C4        -10.7593   -0.5263   60.9436 C.2     1  ZINC000464706598    0.1300
      5 N5         -9.6566   -0.4273   61.7080 N.pl3   1  ZINC000464706598   -0.3100
      6 C6         -9.5703    0.2361   62.9397 C.ar    1  ZINC000464706598    0.1700
      7 C7         -8.7123   -0.2349   63.9246 C.ar    1  ZINC000464706598   -0.1300
      8 C8         -8.6288    0.4208   65.1372 C.ar    1  ZINC000464706598   -0.0600
      9 C9         -9.3996    1.5458   65.3713 C.ar    1  ZINC000464706598   -0.1000
     10 Br10       -9.2833    2.4407   67.0331 Br      1  ZINC000464706598   -0.0400
     11 C11       -10.2550    2.0174   64.3913 C.ar    1  ZINC000464706598   -0.0700
     12 C12       -10.3384    1.3685   63.1751 C.ar    1  ZINC000464706598   -0.1100
     13 N13        -8.6105   -1.0992   61.0656 N.2     1  ZINC000464706598   -0.2800
     14 C14        -9.0542   -1.6003   59.9456 C.2     1  ZINC000464706598    0.0700
     15 N15       -11.3859   -0.8216   57.6188 N.am    1  ZINC000464706598   -0.6100
     16 C16       -10.5802    0.4059   57.5215 C.3     1  ZINC000464706598    0.0400
     17 C17       -11.5077    1.5636   57.1350 C.3     1  ZINC000464706598    0.0500
     18 O18       -12.2543    1.2004   55.9712 O.3     1  ZINC000464706598   -0.3700
     19 C19       -13.1168    0.0755   56.1567 C.3     1  ZINC000464706598    0.0500
     20 C20       -12.2676   -1.1615   56.4907 C.3     1  ZINC000464706598    0.1600
     21 H21       -11.6708   -1.4422   55.6229 H       1  ZINC000464706598    0.0900
     22 C22       -13.1681   -2.3057   56.8789 C.ar    1  ZINC000464706598   -0.0500
     23 C23       -12.8834   -3.5872   56.4455 C.ar    1  ZINC000464706598   -0.1000
     24 C24       -13.7093   -4.6368   56.8015 C.ar    1  ZINC000464706598   -0.1100
     25 C25       -14.8199   -4.4051   57.5914 C.ar    1  ZINC000464706598   -0.1200
     26 C26       -15.1041   -3.1239   58.0256 C.ar    1  ZINC000464706598   -0.1100
     27 C27       -14.2757   -2.0750   57.6731 C.ar    1  ZINC000464706598   -0.1000
     28 H28       -11.7311   -0.1111   61.1662 H       1  ZINC000464706598    0.1900
     29 H29        -8.1110   -1.1134   63.7427 H       1  ZINC000464706598    0.1400
     30 H30        -7.9617    0.0549   65.9037 H       1  ZINC000464706598    0.1500
     31 H31       -10.8553    2.8959   64.5764 H       1  ZINC000464706598    0.1500
     32 H32       -11.0059    1.7372   62.4103 H       1  ZINC000464706598    0.1500
     33 H33        -8.4774   -2.1726   59.2343 H       1  ZINC000464706598    0.2100
     34 H34       -10.1128    0.6155   58.4836 H       1  ZINC000464706598    0.1200
     35 H35        -9.8116    0.2809   56.7588 H       1  ZINC000464706598    0.0800
     36 H36       -12.1929    1.7713   57.9569 H       1  ZINC000464706598    0.0600
     37 H37       -10.9125    2.4518   56.9230 H       1  ZINC000464706598    0.1100
     38 H38       -13.8079    0.2776   56.9751 H       1  ZINC000464706598    0.0600
     39 H39       -13.6793   -0.1071   55.2410 H       1  ZINC000464706598    0.1100
     40 H40       -12.0157   -3.7682   55.8283 H       1  ZINC000464706598    0.1100
     41 H41       -13.4872   -5.6378   56.4623 H       1  ZINC000464706598    0.1200
     42 H42       -15.4656   -5.2252   57.8690 H       1  ZINC000464706598    0.1200
     43 H43       -15.9720   -2.9429   58.6424 H       1  ZINC000464706598    0.1200
     44 H44       -14.4978   -1.0739   58.0123 H       1  ZINC000464706598    0.1100
@<TRIPOS>BOND
     1     1     2    2
     2     2     3    1
     3     2    15   am
     4     3    14    1
     5     3     4    2
     6     4     5    1
     7     4    28    1
     8     5     6    1
     9     5    13    1
    10     6    12   ar
    11     6     7   ar
    12     7     8   ar
    13     7    29    1
    14     8     9   ar
    15     8    30    1
    16     9    10    1
    17     9    11   ar
    18    11    12   ar
    19    11    31    1
    20    12    32    1
    21    13    14    2
    22    14    33    1
    23    15    20    1
    24    15    16    1
    25    16    17    1
    26    16    34    1
    27    16    35    1
    28    17    18    1
    29    17    36    1
    30    17    37    1
    31    18    19    1
    32    19    20    1
    33    19    38    1
    34    19    39    1
    35    20    21    1
    36    20    22    1
    37    22    27   ar
    38    22    23   ar
    39    23    24   ar
    40    23    40    1
    41    24    25   ar
    42    24    41    1
    43    25    26   ar
    44    25    42    1
    45    26    27   ar
    46    26    43    1
    47    27    44    1
@<TRIPOS>SUBSTRUCTURE
     1 ZINC000464706598        1 TEMP              0 ****  ****    0 ROOT


##########                                Name:    ZINC001091652821
##########                DOCK_Rotatable_Bonds:                   4
##########                         Heavy_Atoms:                  24
##########                    Molecular_Weight:             345.465
##########                DOCK_Rotatable_Bonds:                   4
##########                       Formal_Charge:          -0.0199997
##########                     HBond_Acceptors:                   6
##########                        HBond_Donors:                   0
##########                         Heavy_Atoms:                  24
##########                          Grid_Score:          -25.795259
##########                     Grid_vdw_energy:          -25.668926
##########                      Grid_es_energy:           -0.126334
##########           Internal_energy_repulsive:            3.776304

@<TRIPOS>MOLECULE
ZINC001091652821
 47 50 1 0 0
SMALL
USER_CHARGES


@<TRIPOS>ATOM
      1 C1         -8.8217    0.5214   52.8447 C.3     1  ZINC001091652821   -0.1000
      2 C2        -10.0795   -0.0469   53.4495 C.2     1  ZINC001091652821   -0.1200
      3 C3        -10.7671   -1.0407   52.8750 C.2     1  ZINC001091652821   -0.2400
      4 S4        -12.1361   -1.4535   53.8058 S.3     1  ZINC001091652821    0.2100
      5 C5        -11.7476   -0.2302   55.0076 C.2     1  ZINC001091652821   -0.2700
      6 C6        -12.5253    0.0498   56.2181 C.2     1  ZINC001091652821    0.6100
      7 O7        -13.1274    1.1021   56.3247 O.2     1  ZINC001091652821   -0.5200
      8 N8        -12.5734   -0.8580   57.2131 N.am    1  ZINC001091652821   -0.6200
      9 C9        -11.9010   -2.1671   57.2430 C.3     1  ZINC001091652821    0.0900
     10 C10       -11.5724   -2.4530   58.7175 C.3     1  ZINC001091652821   -0.0900
     11 H11       -11.7242   -3.5014   58.9746 H       1  ZINC001091652821    0.1100
     12 C12       -10.1313   -1.9871   59.0127 C.3     1  ZINC001091652821    0.0400
     13 N13       -10.2217   -1.2884   60.3202 N.3     1  ZINC001091652821   -0.5000
     14 C14        -9.0837   -0.3793   60.5111 C.3     1  ZINC001091652821    0.1200
     15 C15        -8.9877    0.0069   61.9646 C.2     1  ZINC001091652821    0.0000
     16 C16        -8.1907   -0.5610   62.8848 C.2     1  ZINC001091652821   -0.0800
     17 O17        -8.4123    0.0782   64.0501 O.3     1  ZINC001091652821   -0.2000
     18 C18        -9.3362    1.0227   63.8287 C.2     1  ZINC001091652821    0.1900
     19 C19        -9.8822    1.9753   64.8609 C.3     1  ZINC001091652821   -0.0600
     20 N20        -9.6802    0.9861   62.5730 N.2     1  ZINC001091652821   -0.4700
     21 C21       -11.4986   -0.5338   60.2428 C.3     1  ZINC001091652821    0.0400
     22 C22       -12.4967   -1.5115   59.5319 C.3     1  ZINC001091652821   -0.0700
     23 C23       -13.3863   -2.2519   60.5325 C.3     1  ZINC001091652821   -0.1300
     24 C24       -13.3034   -0.7313   58.4851 C.3     1  ZINC001091652821    0.1200
     25 C25       -10.6013    0.4138   54.6351 C.2     1  ZINC001091652821   -0.0500
     26 H26        -7.9586   -0.0326   53.2139 H       1  ZINC001091652821    0.0700
     27 H27        -8.8703    0.4370   51.7591 H       1  ZINC001091652821    0.0700
     28 H28        -8.7263    1.5707   53.1237 H       1  ZINC001091652821    0.0700
     29 H29       -10.4924   -1.5176   51.9456 H       1  ZINC001091652821    0.1700
     30 H30       -12.5652   -2.9378   56.8515 H       1  ZINC001091652821    0.0800
     31 H31       -10.9835   -2.1298   56.6557 H       1  ZINC001091652821    0.0800
     32 H32        -9.4622   -2.8445   59.0857 H       1  ZINC001091652821    0.0800
     33 H33        -9.7878   -1.3010   58.2385 H       1  ZINC001091652821    0.0500
     34 H34        -8.1642   -0.8792   60.2065 H       1  ZINC001091652821    0.0500
     35 H35        -9.2282    0.5158   59.9061 H       1  ZINC001091652821    0.1000
     36 H36        -7.5019   -1.3767   62.7213 H       1  ZINC001091652821    0.2100
     37 H37        -9.4091    1.7789   65.8231 H       1  ZINC001091652821    0.0900
     38 H38        -9.6730    3.0007   64.5558 H       1  ZINC001091652821    0.1000
     39 H39       -10.9596    1.8356   64.9505 H       1  ZINC001091652821    0.1000
     40 H40       -11.8603   -0.2956   61.2431 H       1  ZINC001091652821    0.0900
     41 H41       -11.3667    0.3771   59.6588 H       1  ZINC001091652821    0.0500
     42 H42       -13.9812   -1.5306   61.0929 H       1  ZINC001091652821    0.0600
     43 H43       -14.0491   -2.9310   59.9963 H       1  ZINC001091652821    0.0600
     44 H44       -12.7623   -2.8215   61.2213 H       1  ZINC001091652821    0.0700
     45 H45       -13.3577    0.3214   58.7630 H       1  ZINC001091652821    0.0900
     46 H46       -14.3069   -1.1482   58.3993 H       1  ZINC001091652821    0.0800
     47 H47       -10.1542    1.2106   55.2107 H       1  ZINC001091652821    0.1500
@<TRIPOS>BOND
     1     1     2    1
     2     1    26    1
     3     1    27    1
     4     1    28    1
     5     2    25    1
     6     2     3    2
     7     3     4    1
     8     3    29    1
     9     4     5    1
    10     5     6    1
    11     5    25    2
    12     6     7    2
    13     6     8   am
    14     8    24    1
    15     8     9    1
    16     9    10    1
    17     9    30    1
    18     9    31    1
    19    10    11    1
    20    10    22    1
    21    10    12    1
    22    12    13    1
    23    12    32    1
    24    12    33    1
    25    13    14    1
    26    13    21    1
    27    14    15    1
    28    14    34    1
    29    14    35    1
    30    15    20    1
    31    15    16    2
    32    16    17    1
    33    16    36    1
    34    17    18    1
    35    18    19    1
    36    18    20    2
    37    19    37    1
    38    19    38    1
    39    19    39    1
    40    21    22    1
    41    21    40    1
    42    21    41    1
    43    22    23    1
    44    22    24    1
    45    23    42    1
    46    23    43    1
    47    23    44    1
    48    24    45    1
    49    24    46    1
    50    25    47    1
@<TRIPOS>SUBSTRUCTURE
     1 ZINC001091652821        1 TEMP              0 ****  ****    0 ROOT


##########                                Name:    ZINC001016082614
##########                DOCK_Rotatable_Bonds:                   6
##########                         Heavy_Atoms:                  25
##########                    Molecular_Weight:             348.402
##########                DOCK_Rotatable_Bonds:                   6
##########                       Formal_Charge:         -0.00999998
##########                     HBond_Acceptors:                   8
##########                        HBond_Donors:                   1
##########                         Heavy_Atoms:                  25
##########                          Grid_Score:          -25.753954
##########                     Grid_vdw_energy:          -25.223169
##########                      Grid_es_energy:           -0.530784
##########           Internal_energy_repulsive:           30.128521

@<TRIPOS>MOLECULE
ZINC001016082614
 49 51 1 0 0
SMALL
USER_CHARGES


@<TRIPOS>ATOM
      1 C1        -12.6999   -0.9109   57.2935 C.3     1  ZINC001016082614   -0.1700
      2 C2        -12.2463   -1.6274   56.0200 C.3     1  ZINC001016082614    0.1000
      3 N3        -13.1891   -1.3403   54.9361 N.am    1  ZINC001016082614   -0.6100
      4 C4        -14.4199   -1.8895   54.9504 C.2     1  ZINC001016082614    0.6100
      5 O5        -15.2030   -1.6510   54.0501 O.2     1  ZINC001016082614   -0.5100
      6 C6        -14.8155   -2.7748   56.0515 C.2     1  ZINC001016082614   -0.1100
      7 C7        -15.8469   -2.5802   56.9216 C.2     1  ZINC001016082614    0.0600
      8 N8        -15.8614   -3.6177   57.7647 N.2     1  ZINC001016082614   -0.4900
      9 C9        -14.8908   -4.4336   57.4515 C.2     1  ZINC001016082614    0.2000
     10 O10       -14.2308   -3.9456   56.3966 O.3     1  ZINC001016082614   -0.1900
     11 C11       -12.7942   -0.4564   53.8365 C.3     1  ZINC001016082614    0.1600
     12 H12       -13.6848   -0.2010   53.2625 H       1  ZINC001016082614    0.0800
     13 C13       -12.2158    0.8250   54.4291 C.3     1  ZINC001016082614   -0.1300
     14 C14       -12.3999    1.9569   53.4486 C.3     1  ZINC001016082614   -0.1300
     15 C15       -11.1612    2.0789   52.5427 C.3     1  ZINC001016082614    0.1000
     16 N16       -10.6418    0.7603   52.1299 N.am    1  ZINC001016082614   -0.6000
     17 C17        -9.3089    0.5614   52.1319 C.2     1  ZINC001016082614    0.5000
     18 O18        -8.8556   -0.5125   51.7973 O.2     1  ZINC001016082614   -0.5200
     19 C19        -8.3817    1.6735   52.5500 C.3     1  ZINC001016082614    0.1100
     20 H20        -8.6910    2.0797   53.5130 H       1  ZINC001016082614    0.1100
     21 C21        -8.3664    2.7874   51.4798 C.3     1  ZINC001016082614   -0.1200
     22 C22        -7.1562    2.3733   50.6111 C.3     1  ZINC001016082614   -0.1600
     23 C23        -6.2912    1.5562   51.5451 C.2     1  ZINC001016082614    0.5300
     24 O24        -5.1268    1.2790   51.3493 O.2     1  ZINC001016082614   -0.5300
     25 N25        -7.0010    1.1819   52.6260 N.am    1  ZINC001016082614   -0.7100
     26 C26       -11.5042   -0.3268   51.7240 C.3     1  ZINC001016082614    0.1300
     27 C27       -11.8669   -1.1875   52.9595 C.3     1  ZINC001016082614   -0.1600
     28 H28       -11.9984   -1.1244   58.1000 H       1  ZINC001016082614    0.0700
     29 H29       -12.7311    0.1639   57.1142 H       1  ZINC001016082614    0.0500
     30 H30       -13.6932   -1.2615   57.5736 H       1  ZINC001016082614    0.0600
     31 H31       -11.2529   -1.2766   55.7399 H       1  ZINC001016082614    0.0900
     32 H32       -12.2150   -2.7020   56.1993 H       1  ZINC001016082614    0.0900
     33 H33       -16.5273   -1.7415   56.9287 H       1  ZINC001016082614    0.2000
     34 H34       -14.6608   -5.3578   57.9609 H       1  ZINC001016082614    0.2600
     35 H35       -12.7331    1.0616   55.3589 H       1  ZINC001016082614    0.0700
     36 H36       -11.1533    0.6862   54.6287 H       1  ZINC001016082614    0.0800
     37 H37       -13.2793    1.7635   52.8342 H       1  ZINC001016082614    0.0700
     38 H38       -12.5412    2.8893   53.9952 H       1  ZINC001016082614    0.0800
     39 H39       -11.4282    2.6486   51.6526 H       1  ZINC001016082614    0.0700
     40 H40       -10.3796    2.6140   53.0821 H       1  ZINC001016082614    0.0800
     41 H41        -9.2867    2.7800   50.8959 H       1  ZINC001016082614    0.1000
     42 H42        -8.2034    3.7640   51.9357 H       1  ZINC001016082614    0.1000
     43 H43        -7.4829    1.7675   49.7658 H       1  ZINC001016082614    0.1100
     44 H44        -6.6164    3.2544   50.2641 H       1  ZINC001016082614    0.1100
     45 H45        -6.6452    0.6556   53.3591 H       1  ZINC001016082614    0.4200
     46 H46       -12.4145    0.0778   51.2814 H       1  ZINC001016082614    0.0800
     47 H47       -10.9878   -0.9448   50.9896 H       1  ZINC001016082614    0.0900
     48 H48       -10.9579   -1.4283   53.5108 H       1  ZINC001016082614    0.0900
     49 H49       -12.3407   -2.1117   52.6289 H       1  ZINC001016082614    0.0700
@<TRIPOS>BOND
     1     1     2    1
     2     1    28    1
     3     1    29    1
     4     1    30    1
     5     2     3    1
     6     2    31    1
     7     2    32    1
     8     3     4   am
     9     3    11    1
    10     4     5    2
    11     4     6    1
    12     6    10    1
    13     6     7    2
    14     7     8    1
    15     7    33    1
    16     8     9    2
    17     9    10    1
    18     9    34    1
    19    11    12    1
    20    11    27    1
    21    11    13    1
    22    13    14    1
    23    13    35    1
    24    13    36    1
    25    14    15    1
    26    14    37    1
    27    14    38    1
    28    15    16    1
    29    15    39    1
    30    15    40    1
    31    16    17   am
    32    16    26    1
    33    17    18    2
    34    17    19    1
    35    19    20    1
    36    19    25    1
    37    19    21    1
    38    21    22    1
    39    21    41    1
    40    21    42    1
    41    22    23    1
    42    22    43    1
    43    22    44    1
    44    23    24    2
    45    23    25   am
    46    25    45    1
    47    26    27    1
    48    26    46    1
    49    26    47    1
    50    27    48    1
    51    27    49    1
@<TRIPOS>SUBSTRUCTURE
     1 ZINC001016082614        1 TEMP              0 ****  ****    0 ROOT


##########                                Name:    ZINC000828026236
##########                DOCK_Rotatable_Bonds:                   1
##########                         Heavy_Atoms:                  19
##########                    Molecular_Weight:             383.045
##########                DOCK_Rotatable_Bonds:                   1
##########                       Formal_Charge:                   0
##########                     HBond_Acceptors:                   5
##########                        HBond_Donors:                   0
##########                         Heavy_Atoms:                  19
##########                          Grid_Score:          -25.739315
##########                     Grid_vdw_energy:          -26.068714
##########                      Grid_es_energy:            0.329399
##########           Internal_energy_repulsive:            2.192304

@<TRIPOS>MOLECULE
ZINC000828026236
 28 30 1 0 0
SMALL
USER_CHARGES


@<TRIPOS>ATOM
      1 N1         -5.7919    3.2834   55.1295 N.1     1  ZINC000828026236   -0.3800
      2 C2         -5.3306    3.1746   54.0971 C.1     1  ZINC000828026236    0.2600
      3 C3         -4.7492    3.0374   52.7957 C.ar    1  ZINC000828026236   -0.0500
      4 C4         -3.4902    3.5809   52.5170 C.ar    1  ZINC000828026236    0.0100
      5 C5         -2.9721    3.4208   51.2428 C.ar    1  ZINC000828026236   -0.1600
      6 Br6        -1.2752    4.1330   50.8077 Br      1  ZINC000828026236   -0.0100
      7 C7         -3.7054    2.7352   50.2905 C.ar    1  ZINC000828026236    0.1800
      8 N8         -4.8908    2.2302   50.5737 N.ar    1  ZINC000828026236   -0.5000
      9 C9         -5.4300    2.3492   51.7765 C.ar    1  ZINC000828026236    0.3600
     10 N10        -6.6770    1.8032   52.0288 N.3     1  ZINC000828026236   -0.4900
     11 C11        -6.8163    0.4887   51.3863 C.3     1  ZINC000828026236    0.0500
     12 C12        -8.0277   -0.2471   51.9731 C.3     1  ZINC000828026236    0.1100
     13 N13        -9.1749    0.6639   51.9456 N.pl3   1  ZINC000828026236   -0.4400
     14 C14       -10.4971    0.3702   52.0734 C.2     1  ZINC000828026236   -0.0300
     15 Br15      -11.2537   -1.3431   52.3337 Br      1  ZINC000828026236    0.0200
     16 C16       -11.1640    1.5405   51.9782 C.2     1  ZINC000828026236    0.0300
     17 N17       -10.2626    2.5208   51.7971 N.2     1  ZINC000828026236   -0.4700
     18 C18        -9.0702    2.0066   51.7776 C.2     1  ZINC000828026236    0.2300
     19 C19        -7.7500    2.7193   51.6050 C.3     1  ZINC000828026236    0.1500
     20 H20        -2.9364    4.1126   53.2768 H       1  ZINC000828026236    0.1600
     21 H21        -3.3000    2.6114   49.2972 H       1  ZINC000828026236    0.1800
     22 H22        -6.9576    0.6223   50.3137 H       1  ZINC000828026236    0.0700
     23 H23        -5.9150   -0.0985   51.5623 H       1  ZINC000828026236    0.1100
     24 H24        -8.2461   -1.1315   51.3747 H       1  ZINC000828026236    0.1100
     25 H25        -7.8165   -0.5413   53.0012 H       1  ZINC000828026236    0.1000
     26 H26       -12.2349    1.6669   52.0371 H       1  ZINC000828026236    0.1800
     27 H27        -7.7328    3.6171   52.2230 H       1  ZINC000828026236    0.1200
     28 H28        -7.6115    2.9895   50.5583 H       1  ZINC000828026236    0.1000
@<TRIPOS>BOND
     1     1     2    3
     2     2     3    1
     3     3     9   ar
     4     3     4   ar
     5     4     5   ar
     6     4    20    1
     7     5     6    1
     8     5     7   ar
     9     7     8   ar
    10     7    21    1
    11     8     9   ar
    12     9    10    1
    13    10    19    1
    14    10    11    1
    15    11    12    1
    16    11    22    1
    17    11    23    1
    18    12    13    1
    19    12    24    1
    20    12    25    1
    21    13    18    1
    22    13    14    1
    23    14    15    1
    24    14    16    2
    25    16    17    1
    26    16    26    1
    27    17    18    2
    28    18    19    1
    29    19    27    1
    30    19    28    1
@<TRIPOS>SUBSTRUCTURE
     1 ZINC000828026236        1 TEMP              0 ****  ****    0 ROOT


##########                                Name:    ZINC001211202056
##########                DOCK_Rotatable_Bonds:                   4
##########                         Heavy_Atoms:                  23
##########                    Molecular_Weight:             386.181
##########                DOCK_Rotatable_Bonds:                   4
##########                       Formal_Charge:           0.0199999
##########                     HBond_Acceptors:                  11
##########                        HBond_Donors:                   3
##########                         Heavy_Atoms:                  23
##########                          Grid_Score:          -25.717806
##########                     Grid_vdw_energy:          -25.372501
##########                      Grid_es_energy:           -0.345304
##########           Internal_energy_repulsive:            6.017328

@<TRIPOS>MOLECULE
ZINC001211202056
 31 32 1 0 0
SMALL
USER_CHARGES


@<TRIPOS>ATOM
      1 N1         -9.5223    0.4425   52.7866 N.pl3   1  ZINC001211202056   -0.8500
      2 C2         -8.3477    0.9534   52.2277 C.ar    1  ZINC001211202056    0.2900
      3 C3         -7.1631    0.2353   52.3212 C.ar    1  ZINC001211202056   -0.2000
      4 C4         -6.0035    0.7431   51.7678 C.ar    1  ZINC001211202056    0.0400
      5 C5         -6.0211    1.9651   51.1216 C.ar    1  ZINC001211202056   -0.7300
      6 S6         -4.5396    2.6085   50.4174 S.o2    1  ZINC001211202056    2.6900
      7 O7         -3.5444    1.6098   50.5948 O.2     1  ZINC001211202056   -0.9400
      8 O8         -4.8950    3.1343   49.1461 O.2     1  ZINC001211202056   -0.9300
      9 N9         -4.0766    3.8999   51.3449 N.am    1  ZINC001211202056   -1.0500
     10 C10        -3.7951    3.7205   52.7022 C.ar    1  ZINC001211202056    0.1600
     11 C11        -4.8239    3.5045   53.6144 C.ar    1  ZINC001211202056   -0.1200
     12 C12        -4.4948    3.3317   54.9496 C.ar    1  ZINC001211202056   -0.0800
     13 C13        -3.1672    3.3789   55.3297 C.ar    1  ZINC001211202056    0.0400
     14 C14        -2.8027    3.1917   56.7800 C.3     1  ZINC001211202056    0.5300
     15 F15        -1.6612    3.9448   57.0748 F       1  ZINC001211202056   -0.1700
     16 F16        -3.8637    3.6179   57.5862 F       1  ZINC001211202056   -0.1600
     17 F17        -2.5451    1.8387   57.0252 F       1  ZINC001211202056   -0.1700
     18 N18        -2.2141    3.5850   54.4412 N.ar    1  ZINC001211202056   -0.4100
     19 C19        -2.4824    3.7496   53.1606 C.ar    1  ZINC001211202056    0.1600
     20 Cl20       -1.1854    4.0170   52.0380 Cl      1  ZINC001211202056    0.0000
     21 C21        -7.1991    2.6839   51.0263 C.ar    1  ZINC001211202056    0.0400
     22 C22        -8.3638    2.1792   51.5721 C.ar    1  ZINC001211202056   -0.1400
     23 Cl23       -9.8421    3.0815   51.4522 Cl      1  ZINC001211202056   -0.0500
     24 H24       -10.3502    0.9433   52.7172 H       1  ZINC001211202056    0.4100
     25 H25        -9.5106   -0.4147   53.2403 H       1  ZINC001211202056    0.4100
     26 H26        -7.1480   -0.7192   52.8263 H       1  ZINC001211202056    0.1400
     27 H27        -5.0819    0.1847   51.8403 H       1  ZINC001211202056    0.1500
     28 H28        -4.0008    4.7809   50.9461 H       1  ZINC001211202056    0.4400
     29 H29        -5.8535    3.4726   53.2897 H       1  ZINC001211202056    0.2000
     30 H30        -5.2675    3.1622   55.6849 H       1  ZINC001211202056    0.1700
     31 H31        -7.2094    3.6382   50.5209 H       1  ZINC001211202056    0.1500
@<TRIPOS>BOND
     1     1     2    1
     2     1    24    1
     3     1    25    1
     4     2    22   ar
     5     2     3   ar
     6     3     4   ar
     7     3    26    1
     8     4     5   ar
     9     4    27    1
    10     5     6    1
    11     5    21   ar
    12     6     7    2
    13     6     8    2
    14     6     9   am
    15     9    10    1
    16     9    28    1
    17    10    19   ar
    18    10    11   ar
    19    11    12   ar
    20    11    29    1
    21    12    13   ar
    22    12    30    1
    23    13    14    1
    24    13    18   ar
    25    14    15    1
    26    14    16    1
    27    14    17    1
    28    18    19   ar
    29    19    20    1
    30    21    22   ar
    31    21    31    1
    32    22    23    1
@<TRIPOS>SUBSTRUCTURE
     1 ZINC001211202056        1 TEMP              0 ****  ****    0 ROOT


##########                                Name:    ZINC000885154703
##########                DOCK_Rotatable_Bonds:                   5
##########                         Heavy_Atoms:                  24
##########                    Molecular_Weight:             396.259
##########                DOCK_Rotatable_Bonds:                   5
##########                       Formal_Charge:          -0.0099998
##########                     HBond_Acceptors:                   6
##########                        HBond_Donors:                   1
##########                         Heavy_Atoms:                  24
##########                          Grid_Score:          -25.695251
##########                     Grid_vdw_energy:          -25.277285
##########                      Grid_es_energy:           -0.417966
##########           Internal_energy_repulsive:           26.168591

@<TRIPOS>MOLECULE
ZINC000885154703
 43 45 1 0 0
SMALL
USER_CHARGES


@<TRIPOS>ATOM
      1 C1         -0.9778    2.9544   51.7544 C.3     1  ZINC000885154703   -0.1500
      2 C2         -1.6886    3.9676   50.8549 C.3     1  ZINC000885154703   -0.0300
      3 C3         -3.0787    3.4754   50.5444 C.2     1  ZINC000885154703    0.1700
      4 N4         -3.4232    2.7281   49.5388 N.2     1  ZINC000885154703   -0.3800
      5 O5         -4.6153    2.5054   49.5701 O.3     1  ZINC000885154703    0.0800
      6 C6         -5.1608    3.1079   50.6309 C.2     1  ZINC000885154703    0.1800
      7 C7         -6.6136    3.0796   51.0304 C.3     1  ZINC000885154703    0.0000
      8 H8         -7.2454    3.1405   50.1442 H       1  ZINC000885154703    0.1300
      9 C9         -6.9231    4.2539   51.9817 C.3     1  ZINC000885154703   -0.1200
     10 C10        -7.9349    3.6648   52.9958 C.3     1  ZINC000885154703   -0.1300
     11 C11        -7.4063    2.2245   53.2085 C.3     1  ZINC000885154703    0.1400
     12 H12        -6.5783    2.2229   53.9174 H       1  ZINC000885154703    0.1000
     13 N13        -8.4822    1.3475   53.6767 N.am    1  ZINC000885154703   -0.7100
     14 C14        -9.5990    1.1972   52.9373 C.2     1  ZINC000885154703    0.5700
     15 O15        -9.7140    1.7904   51.8825 O.2     1  ZINC000885154703   -0.5100
     16 C16       -10.6830    0.3116   53.4086 C.ar    1  ZINC000885154703   -0.1600
     17 C17       -10.8585   -0.9510   52.8341 C.ar    1  ZINC000885154703    0.1500
     18 F18       -10.0366   -1.3656   51.8452 F       1  ZINC000885154703   -0.1200
     19 C19       -11.8758   -1.7745   53.2815 C.ar    1  ZINC000885154703   -0.1500
     20 C20       -12.7169   -1.3509   54.2929 C.ar    1  ZINC000885154703   -0.0400
     21 C21       -12.5479   -0.1010   54.8659 C.ar    1  ZINC000885154703   -0.1100
     22 Br22      -13.7059    0.4662   56.2491 Br      1  ZINC000885154703   -0.0300
     23 C23       -11.5342    0.7288   54.4341 C.ar    1  ZINC000885154703    0.0100
     24 C24       -11.3527    2.0877   55.0599 C.3     1  ZINC000885154703   -0.1300
     25 C25        -6.9211    1.7887   51.8093 C.3     1  ZINC000885154703   -0.1300
     26 N26        -4.1895    3.7240   51.2607 N.2     1  ZINC000885154703   -0.4800
     27 H27        -1.5373    2.8370   52.6824 H       1  ZINC000885154703    0.0600
     28 H28        -0.9173    1.9939   51.2426 H       1  ZINC000885154703    0.0600
     29 H29         0.0277    3.3104   51.9789 H       1  ZINC000885154703    0.0700
     30 H30        -1.7491    4.9281   51.3667 H       1  ZINC000885154703    0.1000
     31 H31        -1.1290    4.0850   49.9268 H       1  ZINC000885154703    0.0900
     32 H32        -6.0170    4.5800   52.4925 H       1  ZINC000885154703    0.0800
     33 H33        -7.3715    5.0818   51.4325 H       1  ZINC000885154703    0.0900
     34 H34        -7.9159    4.2253   53.9303 H       1  ZINC000885154703    0.0800
     35 H35        -8.9398    3.6491   52.5739 H       1  ZINC000885154703    0.0800
     36 H36        -8.3909    0.8751   54.5190 H       1  ZINC000885154703    0.4000
     37 H37       -12.0134   -2.7502   52.8393 H       1  ZINC000885154703    0.1500
     38 H38       -13.5101   -1.9975   54.6381 H       1  ZINC000885154703    0.1500
     39 H39       -10.6771    2.0082   55.9116 H       1  ZINC000885154703    0.0900
     40 H40       -10.9311    2.7730   54.3245 H       1  ZINC000885154703    0.0800
     41 H41       -12.3185    2.4647   55.3962 H       1  ZINC000885154703    0.0900
     42 H42        -7.7029    1.2229   51.3026 H       1  ZINC000885154703    0.0900
     43 H43        -6.0195    1.1829   51.8987 H       1  ZINC000885154703    0.0800
@<TRIPOS>BOND
     1     1     2    1
     2     1    27    1
     3     1    28    1
     4     1    29    1
     5     2     3    1
     6     2    30    1
     7     2    31    1
     8     3    26    1
     9     3     4    2
    10     4     5    1
    11     5     6    1
    12     6     7    1
    13     6    26    2
    14     7     8    1
    15     7    25    1
    16     7     9    1
    17     9    10    1
    18     9    32    1
    19     9    33    1
    20    10    11    1
    21    10    34    1
    22    10    35    1
    23    11    12    1
    24    11    13    1
    25    11    25    1
    26    13    14   am
    27    13    36    1
    28    14    15    2
    29    14    16    1
    30    16    23   ar
    31    16    17   ar
    32    17    18    1
    33    17    19   ar
    34    19    20   ar
    35    19    37    1
    36    20    21   ar
    37    20    38    1
    38    21    22    1
    39    21    23   ar
    40    23    24    1
    41    24    39    1
    42    24    40    1
    43    24    41    1
    44    25    42    1
    45    25    43    1
@<TRIPOS>SUBSTRUCTURE
     1 ZINC000885154703        1 TEMP              0 ****  ****    0 ROOT


##########                                Name:    ZINC000581017854
##########                DOCK_Rotatable_Bonds:                   6
##########                         Heavy_Atoms:                  24
##########                    Molecular_Weight:             330.334
##########                DOCK_Rotatable_Bonds:                   6
##########                       Formal_Charge:           0.0099998
##########                     HBond_Acceptors:                   6
##########                        HBond_Donors:                   2
##########                         Heavy_Atoms:                  24
##########                          Grid_Score:          -25.677414
##########                     Grid_vdw_energy:          -25.397945
##########                      Grid_es_energy:           -0.279468
##########           Internal_energy_repulsive:            7.774910

@<TRIPOS>MOLECULE
ZINC000581017854
 40 42 1 0 0
SMALL
USER_CHARGES


@<TRIPOS>ATOM
      1 C1         -4.9787    4.5412   51.9932 C.3     1  ZINC000581017854   -0.1600
      2 C2         -5.0471    3.4578   50.9148 C.3     1  ZINC000581017854    0.1500
      3 H3         -5.5093    3.8678   50.0168 H       1  ZINC000581017854    0.1100
      4 C4         -3.6329    2.9756   50.5859 C.3     1  ZINC000581017854    0.0500
      5 O5         -2.7688    4.1034   50.4321 O.3     1  ZINC000581017854   -0.3100
      6 C6         -1.5311    4.0124   50.9859 C.ar    1  ZINC000581017854    0.1600
      7 C7         -1.3904    3.6366   52.3139 C.ar    1  ZINC000581017854   -0.2200
      8 C8         -0.1315    3.5444   52.8760 C.ar    1  ZINC000581017854   -0.0500
      9 C9          0.9884    3.8267   52.1170 C.ar    1  ZINC000581017854   -0.1900
     10 C10         0.8518    4.2027   50.7909 C.ar    1  ZINC000581017854    0.1400
     11 F11         1.9477    4.4782   50.0505 F       1  ZINC000581017854   -0.1300
     12 C12        -0.4066    4.2896   50.2226 C.ar    1  ZINC000581017854   -0.1900
     13 N13        -5.8457    2.3314   51.4043 N.am    1  ZINC000581017854   -0.7300
     14 C14        -7.1058    2.1553   50.9601 C.2     1  ZINC000581017854    0.5900
     15 O15        -7.5808    2.9327   50.1536 O.2     1  ZINC000581017854   -0.5400
     16 C16        -7.9060    1.0247   51.4496 C.2     1  ZINC000581017854   -0.2200
     17 C17        -7.4818   -0.2588   51.6277 C.2     1  ZINC000581017854    0.1100
     18 N18        -8.5026   -1.0185   52.0940 N.pl3   1  ZINC000581017854   -0.5700
     19 C19        -9.6429   -0.2556   52.2400 C.ar    1  ZINC000581017854    0.1100
     20 C20       -10.9324   -0.5452   52.6729 C.ar    1  ZINC000581017854   -0.1600
     21 C21       -11.8858    0.4518   52.7110 C.ar    1  ZINC000581017854    0.1200
     22 F22       -13.1371    0.1661   53.1326 F       1  ZINC000581017854   -0.1400
     23 C23       -11.5698    1.7470   52.3202 C.ar    1  ZINC000581017854   -0.1700
     24 C24       -10.2973    2.0514   51.8887 C.ar    1  ZINC000581017854   -0.0300
     25 C25        -9.3248    1.0557   51.8512 C.ar    1  ZINC000581017854   -0.0700
     26 H26        -4.3845    5.3793   51.6290 H       1  ZINC000581017854    0.0700
     27 H27        -5.9862    4.8846   52.2275 H       1  ZINC000581017854    0.0700
     28 H28        -4.5165    4.1312   52.8912 H       1  ZINC000581017854    0.0700
     29 H29        -3.2664    2.3450   51.3959 H       1  ZINC000581017854    0.0700
     30 H30        -3.6508    2.4026   49.6588 H       1  ZINC000581017854    0.0800
     31 H31        -2.2648    3.4164   52.9084 H       1  ZINC000581017854    0.1400
     32 H32        -0.0226    3.2518   53.9099 H       1  ZINC000581017854    0.1400
     33 H33         1.9714    3.7543   52.5585 H       1  ZINC000581017854    0.1400
     34 H34        -0.5138    4.5824   49.1886 H       1  ZINC000581017854    0.1400
     35 H35        -5.4675    1.7123   52.0482 H       1  ZINC000581017854    0.4000
     36 H36        -6.4826   -0.6162   51.4274 H       1  ZINC000581017854    0.1800
     37 H37        -8.4405   -1.9653   52.2960 H       1  ZINC000581017854    0.4200
     38 H38       -11.1876   -1.5492   52.9784 H       1  ZINC000581017854    0.1400
     39 H39       -12.3250    2.5183   52.3543 H       1  ZINC000581017854    0.1400
     40 H40       -10.0541    3.0589   51.5851 H       1  ZINC000581017854    0.1500
@<TRIPOS>BOND
     1     1     2    1
     2     1    26    1
     3     1    27    1
     4     1    28    1
     5     2     3    1
     6     2     4    1
     7     2    13    1
     8     4     5    1
     9     4    29    1
    10     4    30    1
    11     5     6    1
    12     6    12   ar
    13     6     7   ar
    14     7     8   ar
    15     7    31    1
    16     8     9   ar
    17     8    32    1
    18     9    10   ar
    19     9    33    1
    20    10    11    1
    21    10    12   ar
    22    12    34    1
    23    13    14   am
    24    13    35    1
    25    14    15    2
    26    14    16    1
    27    16    25    1
    28    16    17    2
    29    17    18    1
    30    17    36    1
    31    18    19    1
    32    18    37    1
    33    19    25   ar
    34    19    20   ar
    35    20    21   ar
    36    20    38    1
    37    21    22    1
    38    21    23   ar
    39    23    24   ar
    40    23    39    1
    41    24    25   ar
    42    24    40    1
@<TRIPOS>SUBSTRUCTURE
     1 ZINC000581017854        1 TEMP              0 ****  ****    0 ROOT


##########                                Name:    ZINC001011267435
##########                DOCK_Rotatable_Bonds:                   7
##########                         Heavy_Atoms:                  24
##########                    Molecular_Weight:             331.458
##########                DOCK_Rotatable_Bonds:                   7
##########                       Formal_Charge:        -4.47035e-08
##########                     HBond_Acceptors:                   5
##########                        HBond_Donors:                   0
##########                         Heavy_Atoms:                  24
##########                          Grid_Score:          -25.673800
##########                     Grid_vdw_energy:          -25.199436
##########                      Grid_es_energy:           -0.474364
##########           Internal_energy_repulsive:           34.487698

@<TRIPOS>MOLECULE
ZINC001011267435
 53 54 1 0 0
SMALL
USER_CHARGES


@<TRIPOS>ATOM
      1 C1         -5.3212    1.8308   51.3120 C.3     1  ZINC001011267435   -0.1500
      2 C2         -6.7067    1.2046   51.4825 C.3     1  ZINC001011267435   -0.1200
      3 C3         -7.5626    2.0975   52.3831 C.3     1  ZINC001011267435   -0.0700
      4 C4         -9.0088    1.6904   52.2657 C.ar    1  ZINC001011267435    0.1300
      5 C5         -9.3782    0.3940   52.5669 C.ar    1  ZINC001011267435   -0.1200
      6 C6        -10.7233    0.0286   52.4540 C.ar    1  ZINC001011267435   -0.0800
      7 C7        -11.1666   -1.3499   52.7668 C.2     1  ZINC001011267435    0.5600
      8 O8        -11.2756   -2.1698   51.8766 O.2     1  ZINC001011267435   -0.5200
      9 N9        -11.4490   -1.6946   54.0388 N.am    1  ZINC001011267435   -0.6100
     10 C10       -11.3275   -0.7118   55.1246 C.3     1  ZINC001011267435    0.0700
     11 C11       -12.6668   -0.6348   55.8681 C.3     1  ZINC001011267435    0.1000
     12 N12       -13.1022   -2.0001   56.1940 N.am    1  ZINC001011267435   -0.6200
     13 C13       -13.3854   -2.3447   57.4658 C.2     1  ZINC001011267435    0.5300
     14 O14       -13.7437   -3.4746   57.7224 O.2     1  ZINC001011267435   -0.5300
     15 C15       -13.2568   -1.3262   58.5689 C.3     1  ZINC001011267435   -0.1100
     16 H16       -12.3201   -0.7810   58.4527 H       1  ZINC001011267435    0.0900
     17 C17       -13.2682   -2.0372   59.9236 C.3     1  ZINC001011267435   -0.1500
     18 C18       -14.4295   -0.3461   58.4975 C.3     1  ZINC001011267435   -0.0800
     19 C19       -15.6226   -0.9217   59.2630 C.3     1  ZINC001011267435   -0.1500
     20 C20       -14.0179    0.9881   59.1232 C.3     1  ZINC001011267435   -0.1500
     21 C21       -13.2237   -2.9830   55.1080 C.3     1  ZINC001011267435    0.0900
     22 C22       -11.8898   -3.0584   54.3638 C.3     1  ZINC001011267435    0.1000
     23 C23       -11.6381    1.0006   52.0383 C.ar    1  ZINC001011267435   -0.1600
     24 C24       -11.1813    2.2740   51.7574 C.ar    1  ZINC001011267435    0.1100
     25 N25        -9.9050    2.5778   51.8820 N.ar    1  ZINC001011267435   -0.4600
     26 H26        -5.4214    2.8163   50.8571 H       1  ZINC001011267435    0.0600
     27 H27        -4.8438    1.9275   52.2870 H       1  ZINC001011267435    0.0500
     28 H28        -4.7115    1.1947   50.6703 H       1  ZINC001011267435    0.0600
     29 H29        -7.1842    1.1079   50.5074 H       1  ZINC001011267435    0.0700
     30 H30        -6.6066    0.2191   51.9374 H       1  ZINC001011267435    0.0600
     31 H31        -7.2372    1.9883   53.4177 H       1  ZINC001011267435    0.0800
     32 H32        -7.4516    3.1371   52.0751 H       1  ZINC001011267435    0.0900
     33 H33        -8.6392   -0.3268   52.8845 H       1  ZINC001011267435    0.1400
     34 H34       -10.5435   -1.0240   55.8147 H       1  ZINC001011267435    0.0800
     35 H35       -11.0837    0.2654   54.7079 H       1  ZINC001011267435    0.1100
     36 H36       -12.5428   -0.0613   56.7867 H       1  ZINC001011267435    0.1100
     37 H37       -13.4111   -0.1555   55.2322 H       1  ZINC001011267435    0.0700
     38 H38       -13.2588   -1.2964   60.7230 H       1  ZINC001011267435    0.0800
     39 H39       -14.1668   -2.6487   60.0054 H       1  ZINC001011267435    0.0600
     40 H40       -12.3871   -2.6734   60.0075 H       1  ZINC001011267435    0.0600
     41 H41       -14.7081   -0.1882   57.4557 H       1  ZINC001011267435    0.0800
     42 H42       -16.4581   -0.2235   59.2121 H       1  ZINC001011267435    0.0600
     43 H43       -15.9158   -1.8723   58.8173 H       1  ZINC001011267435    0.0600
     44 H44       -15.3439   -1.0796   60.3049 H       1  ZINC001011267435    0.0600
     45 H45       -13.1679    1.3982   58.5779 H       1  ZINC001011267435    0.0600
     46 H46       -14.8534    1.6863   59.0724 H       1  ZINC001011267435    0.0600
     47 H47       -13.7392    0.8302   60.1651 H       1  ZINC001011267435    0.0500
     48 H48       -13.4674   -3.9602   55.5247 H       1  ZINC001011267435    0.1000
     49 H49       -14.0076   -2.6708   54.4181 H       1  ZINC001011267435    0.0800
     50 H50       -12.0151   -3.6322   53.4456 H       1  ZINC001011267435    0.1100
     51 H51       -11.1435   -3.5369   54.9981 H       1  ZINC001011267435    0.0800
     52 H52       -12.6861    0.7595   51.9378 H       1  ZINC001011267435    0.1500
     53 H53       -11.8803    3.0316   51.4352 H       1  ZINC001011267435    0.1700
@<TRIPOS>BOND
     1     1     2    1
     2     1    26    1
     3     1    27    1
     4     1    28    1
     5     2     3    1
     6     2    29    1
     7     2    30    1
     8     3     4    1
     9     3    31    1
    10     3    32    1
    11     4    25   ar
    12     4     5   ar
    13     5     6   ar
    14     5    33    1
    15     6     7    1
    16     6    23   ar
    17     7     8    2
    18     7     9   am
    19     9    22    1
    20     9    10    1
    21    10    11    1
    22    10    34    1
    23    10    35    1
    24    11    12    1
    25    11    36    1
    26    11    37    1
    27    12    13   am
    28    12    21    1
    29    13    14    2
    30    13    15    1
    31    15    16    1
    32    15    17    1
    33    15    18    1
    34    17    38    1
    35    17    39    1
    36    17    40    1
    37    18    19    1
    38    18    20    1
    39    18    41    1
    40    19    42    1
    41    19    43    1
    42    19    44    1
    43    20    45    1
    44    20    46    1
    45    20    47    1
    46    21    22    1
    47    21    48    1
    48    21    49    1
    49    22    50    1
    50    22    51    1
    51    23    24   ar
    52    23    52    1
    53    24    25   ar
    54    24    53    1
@<TRIPOS>SUBSTRUCTURE
     1 ZINC001011267435        1 TEMP              0 ****  ****    0 ROOT


##########                                Name:    ZINC001362451754
##########                DOCK_Rotatable_Bonds:                   6
##########                         Heavy_Atoms:                  22
##########                    Molecular_Weight:             339.846
##########                DOCK_Rotatable_Bonds:                   6
##########                       Formal_Charge:         -0.00999987
##########                     HBond_Acceptors:                   7
##########                        HBond_Donors:                   1
##########                         Heavy_Atoms:                  22
##########                          Grid_Score:          -25.558985
##########                     Grid_vdw_energy:          -24.732439
##########                      Grid_es_energy:           -0.826546
##########           Internal_energy_repulsive:           19.827366

@<TRIPOS>MOLECULE
ZINC001362451754
 40 42 1 0 0
SMALL
USER_CHARGES


@<TRIPOS>ATOM
      1 C1         -3.0551    3.1727   51.5080 C.3     1  ZINC001362451754   -0.1700
      2 C2         -3.3764    4.0880   52.6913 C.3     1  ZINC001362451754    0.1400
      3 H3         -3.8209    3.5087   53.5006 H       1  ZINC001362451754    0.0800
      4 C4         -2.0878    4.7781   53.1860 C.3     1  ZINC001362451754   -0.1000
      5 H5         -2.1042    4.8940   54.2698 H       1  ZINC001362451754    0.1000
      6 C6         -0.8501    3.9957   52.7425 C.3     1  ZINC001362451754    0.0900
      7 O7          0.3180    4.5876   53.3146 O.3     1  ZINC001362451754   -0.5700
      8 C8         -2.1433    6.1612   52.4852 C.3     1  ZINC001362451754   -0.1200
      9 C9         -3.6620    6.4552   52.4924 C.3     1  ZINC001362451754    0.0900
     10 N10        -4.3034    5.1472   52.2667 N.am    1  ZINC001362451754   -0.6100
     11 C11        -5.5337    4.9541   51.7511 C.2     1  ZINC001362451754    0.6100
     12 O12        -6.2147    5.9094   51.4278 O.2     1  ZINC001362451754   -0.5200
     13 C13        -6.0512    3.5934   51.5799 C.2     1  ZINC001362451754   -0.2500
     14 C14        -6.3326    2.9970   50.3830 C.2     1  ZINC001362451754   -0.0500
     15 C15        -6.8125    1.7154   50.5136 C.2     1  ZINC001362451754   -0.1100
     16 C16        -6.9114    1.2718   51.7723 C.2     1  ZINC001362451754   -0.2500
     17 C17        -7.4065   -0.0980   52.1586 C.3     1  ZINC001362451754    0.2100
     18 N18        -8.8658   -0.0719   52.2859 N.pl3   1  ZINC001362451754   -0.3700
     19 C19        -9.6075    0.9726   52.7129 C.2     1  ZINC001362451754    0.0700
     20 C20       -10.9073    0.5954   52.6817 C.2     1  ZINC001362451754   -0.1800
     21 Cl21      -12.2670    1.5769   53.1308 Cl      1  ZINC001362451754   -0.0400
     22 C22       -10.9605   -0.7277   52.2293 C.2     1  ZINC001362451754    0.0700
     23 N23        -9.7377   -1.1282   51.9918 N.2     1  ZINC001362451754   -0.2700
     24 S24        -6.4098    2.4671   52.8817 S.3     1  ZINC001362451754    0.2300
     25 H25        -2.6171    3.7613   50.7019 H       1  ZINC001362451754    0.0600
     26 H26        -2.3477    2.4057   51.8236 H       1  ZINC001362451754    0.0700
     27 H27        -3.9713    2.6991   51.1557 H       1  ZINC001362451754    0.0700
     28 H28        -0.9346    2.9617   53.0771 H       1  ZINC001362451754    0.0500
     29 H29        -0.7748    4.0207   51.6554 H       1  ZINC001362451754    0.0500
     30 H30         1.0118    4.7891   52.6719 H       1  ZINC001362451754    0.3800
     31 H31        -1.5957    6.9109   53.0564 H       1  ZINC001362451754    0.0900
     32 H32        -1.7653    6.0976   51.4648 H       1  ZINC001362451754    0.0800
     33 H33        -3.9187    7.1471   51.6902 H       1  ZINC001362451754    0.0800
     34 H34        -3.9624    6.8635   53.4573 H       1  ZINC001362451754    0.0800
     35 H35        -6.1958    3.4855   49.4296 H       1  ZINC001362451754    0.1600
     36 H36        -7.0861    1.1095   49.6625 H       1  ZINC001362451754    0.1500
     37 H37        -7.1217   -0.8173   51.3907 H       1  ZINC001362451754    0.1100
     38 H38        -6.9639   -0.3891   53.1112 H       1  ZINC001362451754    0.1100
     39 H39        -9.2315    1.9369   53.0216 H       1  ZINC001362451754    0.1800
     40 H40       -11.8563   -1.3167   52.0988 H       1  ZINC001362451754    0.1900
@<TRIPOS>BOND
     1     1     2    1
     2     1    25    1
     3     1    26    1
     4     1    27    1
     5     2     3    1
     6     2    10    1
     7     2     4    1
     8     4     5    1
     9     4     6    1
    10     4     8    1
    11     6     7    1
    12     6    28    1
    13     6    29    1
    14     7    30    1
    15     8     9    1
    16     8    31    1
    17     8    32    1
    18     9    10    1
    19     9    33    1
    20     9    34    1
    21    10    11   am
    22    11    12    2
    23    11    13    1
    24    13    24    1
    25    13    14    2
    26    14    15    1
    27    14    35    1
    28    15    16    2
    29    15    36    1
    30    16    17    1
    31    16    24    1
    32    17    18    1
    33    17    37    1
    34    17    38    1
    35    18    23    1
    36    18    19    1
    37    19    20    2
    38    19    39    1
    39    20    21    1
    40    20    22    1
    41    22    23    2
    42    22    40    1
@<TRIPOS>SUBSTRUCTURE
     1 ZINC001362451754        1 TEMP              0 ****  ****    0 ROOT


##########                                Name:    ZINC000225856071
##########                DOCK_Rotatable_Bonds:                   6
##########                         Heavy_Atoms:                  29
##########                    Molecular_Weight:             409.549
##########                DOCK_Rotatable_Bonds:                   6
##########                       Formal_Charge:         -0.00999989
##########                     HBond_Acceptors:                   5
##########                        HBond_Donors:                   1
##########                         Heavy_Atoms:                  29
##########                          Grid_Score:          -25.542007
##########                     Grid_vdw_energy:          -25.603378
##########                      Grid_es_energy:            0.061370
##########           Internal_energy_repulsive:           40.459820

@<TRIPOS>MOLECULE
ZINC000225856071
 56 58 1 0 0
SMALL
USER_CHARGES


@<TRIPOS>ATOM
      1 C1         -7.4385    2.9494   55.3078 C.3     1  ZINC000225856071    0.0200
      2 O2         -7.3336    2.1996   54.0959 O.3     1  ZINC000225856071   -0.3100
      3 C3         -8.3769    1.3880   53.7803 C.ar    1  ZINC000225856071    0.1900
      4 C4         -9.4648    1.2907   54.6352 C.ar    1  ZINC000225856071   -0.2300
      5 C5        -10.5245    0.4652   54.3117 C.ar    1  ZINC000225856071    0.0700
      6 C6        -11.7068    0.3591   55.2401 C.3     1  ZINC000225856071   -0.1800
      7 C7        -10.5014   -0.2631   53.1369 C.ar    1  ZINC000225856071   -0.7100
      8 S8        -11.8546   -1.3144   52.7270 S.o2    1  ZINC000225856071    2.7000
      9 O9        -11.7486   -1.5807   51.3352 O.2     1  ZINC000225856071   -0.9600
     10 O10       -11.8819   -2.3364   53.7140 O.2     1  ZINC000225856071   -0.9500
     11 N11       -13.2406   -0.4311   52.9300 N.am    1  ZINC000225856071   -1.1100
     12 C12       -13.4495    0.7930   52.1527 C.3     1  ZINC000225856071    0.2400
     13 H13       -12.5112    1.3433   52.0825 H       1  ZINC000225856071    0.1100
     14 C14       -14.4849    1.6501   52.8339 C.ar    1  ZINC000225856071   -0.1000
     15 C15       -14.3596    3.0267   52.8213 C.ar    1  ZINC000225856071   -0.1000
     16 C16       -15.3094    3.8130   53.4461 C.ar    1  ZINC000225856071   -0.1200
     17 C17       -16.3849    3.2227   54.0832 C.ar    1  ZINC000225856071   -0.1100
     18 C18       -16.5107    1.8461   54.0950 C.ar    1  ZINC000225856071   -0.1100
     19 C19       -15.5632    1.0600   53.4665 C.ar    1  ZINC000225856071   -0.1000
     20 C20       -13.9260    0.4340   50.7688 C.ar    1  ZINC000225856071   -0.0900
     21 C21       -14.7034   -0.6924   50.5762 C.ar    1  ZINC000225856071   -0.1000
     22 C22       -15.1407   -1.0216   49.3065 C.ar    1  ZINC000225856071   -0.1200
     23 C23       -14.8006   -0.2243   48.2301 C.ar    1  ZINC000225856071   -0.0800
     24 C24       -15.2767   -0.5835   46.8461 C.3     1  ZINC000225856071   -0.1200
     25 C25       -14.0239    0.9032   48.4229 C.ar    1  ZINC000225856071   -0.1200
     26 C26       -13.5901    1.2345   49.6927 C.ar    1  ZINC000225856071   -0.0600
     27 C27       -12.7437    2.4635   49.9030 C.3     1  ZINC000225856071   -0.1300
     28 C28        -9.4181   -0.1675   52.2827 C.ar    1  ZINC000225856071    0.0200
     29 C29        -8.3582    0.6596   52.5994 C.ar    1  ZINC000225856071   -0.1400
     30 C30        -7.1782    0.7636   51.6677 C.3     1  ZINC000225856071   -0.1100
     31 H31        -7.5430    2.2656   56.1503 H       1  ZINC000225856071    0.0600
     32 H32        -6.5412    3.5541   55.4399 H       1  ZINC000225856071    0.1000
     33 H33        -8.3113    3.6004   55.2579 H       1  ZINC000225856071    0.0600
     34 H34        -9.4834    1.8596   55.5531 H       1  ZINC000225856071    0.1400
     35 H35       -12.4519    1.1062   54.9665 H       1  ZINC000225856071    0.0900
     36 H36       -12.1437   -0.6362   55.1597 H       1  ZINC000225856071    0.1000
     37 H37       -11.3800    0.5307   56.2657 H       1  ZINC000225856071    0.0800
     38 H38       -13.9141   -0.7242   53.5635 H       1  ZINC000225856071    0.4200
     39 H39       -13.5194    3.4879   52.3235 H       1  ZINC000225856071    0.1200
     40 H40       -15.2111    4.8885   53.4369 H       1  ZINC000225856071    0.1200
     41 H41       -17.1266    3.8369   54.5720 H       1  ZINC000225856071    0.1200
     42 H42       -17.3507    1.3849   54.5931 H       1  ZINC000225856071    0.1200
     43 H43       -15.6614   -0.0155   53.4757 H       1  ZINC000225856071    0.1200
     44 H44       -14.9692   -1.3154   51.4174 H       1  ZINC000225856071    0.1200
     45 H45       -15.7476   -1.9022   49.1559 H       1  ZINC000225856071    0.1200
     46 H46       -16.2405   -0.1099   46.6591 H       1  ZINC000225856071    0.0700
     47 H47       -14.5518   -0.2347   46.1105 H       1  ZINC000225856071    0.0700
     48 H48       -15.3822   -1.6655   46.7677 H       1  ZINC000225856071    0.0700
     49 H49       -13.7586    1.5265   47.5818 H       1  ZINC000225856071    0.1200
     50 H50       -13.3889    3.3201   50.0977 H       1  ZINC000225856071    0.0800
     51 H51       -12.0809    2.3069   50.7541 H       1  ZINC000225856071    0.0700
     52 H52       -12.1489    2.6523   49.0093 H       1  ZINC000225856071    0.0700
     53 H53        -9.4025   -0.7372   51.3653 H       1  ZINC000225856071    0.1500
     54 H54        -7.3519    1.5649   50.9495 H       1  ZINC000225856071    0.0700
     55 H55        -6.2786    0.9807   52.2437 H       1  ZINC000225856071    0.0700
     56 H56        -7.0506   -0.1794   51.1363 H       1  ZINC000225856071    0.0700
@<TRIPOS>BOND
     1     1     2    1
     2     1    31    1
     3     1    32    1
     4     1    33    1
     5     2     3    1
     6     3    29   ar
     7     3     4   ar
     8     4     5   ar
     9     4    34    1
    10     5     6    1
    11     5     7   ar
    12     6    35    1
    13     6    36    1
    14     6    37    1
    15     7     8    1
    16     7    28   ar
    17     8     9    2
    18     8    10    2
    19     8    11   am
    20    11    12    1
    21    11    38    1
    22    12    13    1
    23    12    14    1
    24    12    20    1
    25    14    19   ar
    26    14    15   ar
    27    15    16   ar
    28    15    39    1
    29    16    17   ar
    30    16    40    1
    31    17    18   ar
    32    17    41    1
    33    18    19   ar
    34    18    42    1
    35    19    43    1
    36    20    26   ar
    37    20    21   ar
    38    21    22   ar
    39    21    44    1
    40    22    23   ar
    41    22    45    1
    42    23    24    1
    43    23    25   ar
    44    24    46    1
    45    24    47    1
    46    24    48    1
    47    25    26   ar
    48    25    49    1
    49    26    27    1
    50    27    50    1
    51    27    51    1
    52    27    52    1
    53    28    29   ar
    54    28    53    1
    55    29    30    1
    56    30    54    1
    57    30    55    1
    58    30    56    1
@<TRIPOS>SUBSTRUCTURE
     1 ZINC000225856071        1 TEMP              0 ****  ****    0 ROOT


##########                                Name:    ZINC000130059363
##########                DOCK_Rotatable_Bonds:                   4
##########                         Heavy_Atoms:                  29
##########                    Molecular_Weight:             389.497
##########                DOCK_Rotatable_Bonds:                   4
##########                       Formal_Charge:          -0.0100003
##########                     HBond_Acceptors:                   5
##########                        HBond_Donors:                   0
##########                         Heavy_Atoms:                  29
##########                          Grid_Score:          -25.538609
##########                     Grid_vdw_energy:          -25.018301
##########                      Grid_es_energy:           -0.520308
##########           Internal_energy_repulsive:           28.379429

@<TRIPOS>MOLECULE
ZINC000130059363
 56 60 1 0 0
SMALL
USER_CHARGES


@<TRIPOS>ATOM
      1 C1        -15.4776   -1.9413   55.6492 C.3     1  ZINC000130059363   -0.1200
      2 C2        -14.5819   -1.7115   54.4592 C.ar    1  ZINC000130059363    0.1900
      3 N3        -15.0857   -1.2106   53.3528 N.ar    1  ZINC000130059363   -0.4800
      4 C4        -14.3351   -0.9907   52.2796 C.ar    1  ZINC000130059363    0.2000
      5 C5        -14.9538   -0.4236   51.0579 C.ar    1  ZINC000130059363   -0.0600
      6 C6        -14.1527   -0.0208   49.9901 C.ar    1  ZINC000130059363   -0.1000
      7 C7        -14.7344    0.5060   48.8551 C.ar    1  ZINC000130059363   -0.1200
      8 C8        -16.1095    0.6353   48.7756 C.ar    1  ZINC000130059363   -0.1000
      9 C9        -16.9093    0.2379   49.8320 C.ar    1  ZINC000130059363   -0.1300
     10 C10       -16.3394   -0.2961   50.9697 C.ar    1  ZINC000130059363   -0.0700
     11 C11       -12.9720   -1.2860   52.2873 C.ar    1  ZINC000130059363   -0.1800
     12 C12       -12.4031   -1.8137   53.4295 C.ar    1  ZINC000130059363   -0.0400
     13 C13       -13.2242   -2.0277   54.5450 C.ar    1  ZINC000130059363   -0.1900
     14 C14       -12.6635   -2.5896   55.7907 C.2     1  ZINC000130059363    0.5700
     15 O15       -12.8490   -3.7587   56.0676 O.2     1  ZINC000130059363   -0.5200
     16 N16       -11.9461   -1.8061   56.6202 N.am    1  ZINC000130059363   -0.6000
     17 C17       -11.7169   -0.3890   56.3046 C.3     1  ZINC000130059363    0.1000
     18 C18       -12.1926    0.4543   57.4914 C.3     1  ZINC000130059363   -0.1500
     19 C19       -11.5137   -0.0227   58.7702 C.3     1  ZINC000130059363    0.1500
     20 H20       -11.8989    0.5695   59.6003 H       1  ZINC000130059363    0.0700
     21 C21       -11.8363   -1.4905   59.0435 C.3     1  ZINC000130059363   -0.1100
     22 H22       -12.9058   -1.6128   59.2148 H       1  ZINC000130059363    0.1000
     23 C23       -11.0490   -1.9259   60.2896 C.3     1  ZINC000130059363   -0.1200
     24 C24        -9.5595   -1.9306   59.9366 C.3     1  ZINC000130059363   -0.1400
     25 C25        -9.1845   -0.6474   59.2532 C.2     1  ZINC000130059363    0.5200
     26 O26        -8.0097   -0.3530   59.1893 O.2     1  ZINC000130059363   -0.5400
     27 N27       -10.0739    0.1721   58.7050 N.am    1  ZINC000130059363   -0.5700
     28 C28        -9.5812    1.3659   58.0134 C.3     1  ZINC000130059363    0.0700
     29 C29       -10.1614    2.7171   58.4361 C.3     1  ZINC000130059363   -0.1800
     30 C30        -8.7271    2.3470   58.8190 C.3     1  ZINC000130059363   -0.1600
     31 C31       -11.3813   -2.3475   57.8624 C.3     1  ZINC000130059363    0.1100
     32 H32       -15.4138   -1.0864   56.3223 H       1  ZINC000130059363    0.0800
     33 H33       -16.5069   -2.0616   55.3113 H       1  ZINC000130059363    0.0800
     34 H34       -15.1599   -2.8419   56.1745 H       1  ZINC000130059363    0.1000
     35 H35       -13.0791   -0.1206   50.0513 H       1  ZINC000130059363    0.1300
     36 H36       -14.1150    0.8183   48.0273 H       1  ZINC000130059363    0.1300
     37 H37       -16.5604    1.0486   47.8854 H       1  ZINC000130059363    0.1300
     38 H38       -17.9822    0.3415   49.7644 H       1  ZINC000130059363    0.1300
     39 H39       -16.9648   -0.6061   51.7938 H       1  ZINC000130059363    0.1400
     40 H40       -12.3687   -1.1044   51.4101 H       1  ZINC000130059363    0.1400
     41 H41       -11.3503   -2.0522   53.4637 H       1  ZINC000130059363    0.1400
     42 H42       -10.6536   -0.2179   56.1357 H       1  ZINC000130059363    0.0700
     43 H43       -12.2793   -0.1161   55.4116 H       1  ZINC000130059363    0.0900
     44 H44       -11.9413    1.5004   57.3163 H       1  ZINC000130059363    0.0900
     45 H45       -13.2730    0.3552   57.5961 H       1  ZINC000130059363    0.0800
     46 H46       -11.2316   -1.2244   61.1037 H       1  ZINC000130059363    0.0800
     47 H47       -11.3590   -2.9269   60.5894 H       1  ZINC000130059363    0.0900
     48 H48        -8.9726   -2.0389   60.8487 H       1  ZINC000130059363    0.1000
     49 H49        -9.3485   -2.7686   59.2724 H       1  ZINC000130059363    0.1000
     50 H50        -9.3345    1.2310   56.9604 H       1  ZINC000130059363    0.1100
     51 H51       -10.2966    3.4714   57.6609 H       1  ZINC000130059363    0.1100
     52 H52       -10.9097    2.7177   59.2286 H       1  ZINC000130059363    0.1000
     53 H53        -8.5318    2.1041   59.8635 H       1  ZINC000130059363    0.1000
     54 H54        -7.9187    2.8578   58.2958 H       1  ZINC000130059363    0.1000
     55 H55       -11.7235   -3.3728   58.0032 H       1  ZINC000130059363    0.1000
     56 H56       -10.2933   -2.3312   57.7984 H       1  ZINC000130059363    0.0700
@<TRIPOS>BOND
     1     1     2    1
     2     1    32    1
     3     1    33    1
     4     1    34    1
     5     2    13   ar
     6     2     3   ar
     7     3     4   ar
     8     4     5    1
     9     4    11   ar
    10     5    10   ar
    11     5     6   ar
    12     6     7   ar
    13     6    35    1
    14     7     8   ar
    15     7    36    1
    16     8     9   ar
    17     8    37    1
    18     9    10   ar
    19     9    38    1
    20    10    39    1
    21    11    12   ar
    22    11    40    1
    23    12    13   ar
    24    12    41    1
    25    13    14    1
    26    14    15    2
    27    14    16   am
    28    16    31    1
    29    16    17    1
    30    17    18    1
    31    17    42    1
    32    17    43    1
    33    18    19    1
    34    18    44    1
    35    18    45    1
    36    19    20    1
    37    19    27    1
    38    19    21    1
    39    21    22    1
    40    21    23    1
    41    21    31    1
    42    23    24    1
    43    23    46    1
    44    23    47    1
    45    24    25    1
    46    24    48    1
    47    24    49    1
    48    25    26    2
    49    25    27   am
    50    27    28    1
    51    28    30    1
    52    28    29    1
    53    28    50    1
    54    29    30    1
    55    29    51    1
    56    29    52    1
    57    30    53    1
    58    30    54    1
    59    31    55    1
    60    31    56    1
@<TRIPOS>SUBSTRUCTURE
     1 ZINC000130059363        1 TEMP              0 ****  ****    0 ROOT


##########                                Name:    ZINC000561219098
##########                DOCK_Rotatable_Bonds:                   4
##########                         Heavy_Atoms:                  28
##########                    Molecular_Weight:             423.273
##########                DOCK_Rotatable_Bonds:                   4
##########                       Formal_Charge:          0.00999953
##########                     HBond_Acceptors:                   9
##########                        HBond_Donors:                   1
##########                         Heavy_Atoms:                  28
##########                          Grid_Score:          -25.532938
##########                     Grid_vdw_energy:          -24.369614
##########                      Grid_es_energy:           -1.163324
##########           Internal_energy_repulsive:           10.860353

@<TRIPOS>MOLECULE
ZINC000561219098
 45 48 1 0 0
SMALL
USER_CHARGES


@<TRIPOS>ATOM
      1 C1         -2.9312    3.2838   53.5383 C.3     1  ZINC000561219098    0.0700
      2 N2         -3.7126    3.7562   54.6839 N.pl3   1  ZINC000561219098   -0.4500
      3 C3         -3.3314    4.7356   55.5534 C.2     1  ZINC000561219098   -0.0100
      4 C4         -4.3032    4.8939   56.4716 C.2     1  ZINC000561219098   -0.1700
      5 C5         -5.3341    3.9723   56.1592 C.2     1  ZINC000561219098   -0.1100
      6 C6         -6.6082    3.7891   56.9003 C.2     1  ZINC000561219098    0.1600
      7 N7         -6.9619    4.4325   57.9936 N.2     1  ZINC000561219098   -0.2700
      8 N8         -8.2282    3.9841   58.3886 N.pl3   1  ZINC000561219098   -0.4700
      9 C9         -8.6381    3.0373   57.4914 C.2     1  ZINC000561219098    0.0300
     10 C10        -9.9114    2.2995   57.5216 C.2     1  ZINC000561219098    0.5900
     11 O11       -10.7182    2.4416   56.6226 O.2     1  ZINC000561219098   -0.5000
     12 N12       -10.1833    1.4665   58.5456 N.am    1  ZINC000561219098   -0.6100
     13 C13        -9.2230    1.2782   59.6445 C.3     1  ZINC000561219098    0.0500
     14 C14        -9.0104   -0.2262   59.8485 C.3     1  ZINC000561219098    0.0500
     15 O15       -10.2805   -0.8649   59.9989 O.3     1  ZINC000561219098   -0.3700
     16 C16       -11.1284   -0.7586   58.8528 C.3     1  ZINC000561219098    0.1200
     17 H17       -10.6199   -1.1759   57.9837 H       1  ZINC000561219098    0.0900
     18 C18       -12.4068   -1.5172   59.1005 C.ar    1  ZINC000561219098   -0.0500
     19 C19       -12.9658   -1.5347   60.3641 C.ar    1  ZINC000561219098   -0.1000
     20 C20       -14.1404   -2.2311   60.5919 C.ar    1  ZINC000561219098    0.1200
     21 F21       -14.6874   -2.2481   61.8271 F       1  ZINC000561219098   -0.1200
     22 C22       -14.7549   -2.9103   59.5523 C.ar    1  ZINC000561219098   -0.0600
     23 Cl23      -16.2281   -3.7836   59.8363 Cl      1  ZINC000561219098   -0.0300
     24 C24       -14.1942   -2.8919   58.2882 C.ar    1  ZINC000561219098   -0.0700
     25 C25       -13.0234   -2.1912   58.0610 C.ar    1  ZINC000561219098   -0.0300
     26 Cl26      -12.3202   -2.1678   56.4739 Cl      1  ZINC000561219098   -0.0400
     27 C27       -11.4519    0.7228   58.6007 C.3     1  ZINC000561219098    0.0900
     28 C28        -7.6400    2.9063   56.5502 C.2     1  ZINC000561219098   -0.1700
     29 C29        -4.9401    3.2924   55.0498 C.2     1  ZINC000561219098    0.0300
     30 H30        -3.1829    3.8753   52.6580 H       1  ZINC000561219098    0.0800
     31 H31        -1.8682    3.3892   53.7552 H       1  ZINC000561219098    0.0900
     32 H32        -3.1610    2.2352   53.3492 H       1  ZINC000561219098    0.0900
     33 H33        -2.4058    5.2906   55.5121 H       1  ZINC000561219098    0.1700
     34 H34        -4.2982    5.5938   57.2941 H       1  ZINC000561219098    0.1400
     35 H35        -8.7263    4.2905   59.1625 H       1  ZINC000561219098    0.4400
     36 H36        -8.2750    1.7516   59.3887 H       1  ZINC000561219098    0.1000
     37 H37        -9.6198    1.7201   60.5585 H       1  ZINC000561219098    0.0900
     38 H38        -8.4941   -0.6415   58.9829 H       1  ZINC000561219098    0.0700
     39 H39        -8.4116   -0.3911   60.7442 H       1  ZINC000561219098    0.1200
     40 H40       -12.4860   -1.0053   61.1741 H       1  ZINC000561219098    0.1600
     41 H41       -14.6725   -3.4214   57.4775 H       1  ZINC000561219098    0.1600
     42 H42       -12.0734    1.1058   59.4102 H       1  ZINC000561219098    0.0900
     43 H43       -11.9785    0.8273   57.6520 H       1  ZINC000561219098    0.1100
     44 H44        -7.6480    2.2394   55.7008 H       1  ZINC000561219098    0.1600
     45 H45        -5.4994    2.5151   54.5503 H       1  ZINC000561219098    0.1700
@<TRIPOS>BOND
     1     1     2    1
     2     1    30    1
     3     1    31    1
     4     1    32    1
     5     2    29    1
     6     2     3    1
     7     3     4    2
     8     3    33    1
     9     4     5    1
    10     4    34    1
    11     5     6    1
    12     5    29    2
    13     6    28    1
    14     6     7    2
    15     7     8    1
    16     8     9    1
    17     8    35    1
    18     9    10    1
    19     9    28    2
    20    10    11    2
    21    10    12   am
    22    12    27    1
    23    12    13    1
    24    13    14    1
    25    13    36    1
    26    13    37    1
    27    14    15    1
    28    14    38    1
    29    14    39    1
    30    15    16    1
    31    16    17    1
    32    16    18    1
    33    16    27    1
    34    18    25   ar
    35    18    19   ar
    36    19    20   ar
    37    19    40    1
    38    20    21    1
    39    20    22   ar
    40    22    23    1
    41    22    24   ar
    42    24    25   ar
    43    24    41    1
    44    25    26    1
    45    27    42    1
    46    27    43    1
    47    28    44    1
    48    29    45    1
@<TRIPOS>SUBSTRUCTURE
     1 ZINC000561219098        1 TEMP              0 ****  ****    0 ROOT


##########                                Name:    ZINC000793092912
##########                DOCK_Rotatable_Bonds:                   4
##########                         Heavy_Atoms:                  26
##########                    Molecular_Weight:               407.2
##########                DOCK_Rotatable_Bonds:                   4
##########                       Formal_Charge:         2.90573e-07
##########                     HBond_Acceptors:                  10
##########                        HBond_Donors:                   1
##########                         Heavy_Atoms:                  26
##########                          Grid_Score:          -25.484568
##########                     Grid_vdw_energy:          -24.195673
##########                      Grid_es_energy:           -1.288894
##########           Internal_energy_repulsive:           10.102050

@<TRIPOS>MOLECULE
ZINC000793092912
 40 43 1 0 0
SMALL
USER_CHARGES


@<TRIPOS>ATOM
      1 C1         -6.8506    2.5016   49.9550 C.3     1  ZINC000793092912   -0.1300
      2 C2         -6.3615    3.4074   51.0869 C.3     1  ZINC000793092912   -0.0800
      3 C3         -7.2899    4.5584   51.4424 C.3     1  ZINC000793092912   -0.1100
      4 C4         -7.5842    4.6280   52.9291 C.3     1  ZINC000793092912    0.1100
      5 N5         -6.3987    4.3762   53.7308 N.am    1  ZINC000793092912   -0.5700
      6 C6         -6.0193    5.2987   54.6371 C.2     1  ZINC000793092912    0.5100
      7 O7         -6.6644    6.3178   54.7721 O.2     1  ZINC000793092912   -0.5100
      8 C8         -4.8052    5.0671   55.4751 C.2     1  ZINC000793092912    0.5100
      9 O9         -3.7313    5.5104   55.1233 O.2     1  ZINC000793092912   -0.4900
     10 N10        -4.9017    4.3658   56.6220 N.am    1  ZINC000793092912   -0.6400
     11 C11        -3.7647    4.1489   57.4069 C.ar    1  ZINC000793092912    0.1600
     12 C12        -3.2259    5.1898   58.1517 C.ar    1  ZINC000793092912   -0.1200
     13 C13        -2.1024    4.9769   58.9275 C.ar    1  ZINC000793092912   -0.0600
     14 C14        -1.5100    3.7251   58.9643 C.ar    1  ZINC000793092912    0.0200
     15 O15        -0.4145    3.2628   59.6363 O.3     1  ZINC000793092912   -0.2800
     16 C16        -0.5283    1.8276   59.6155 C.3     1  ZINC000793092912    0.5700
     17 F17         0.7365    1.2354   59.5329 F       1  ZINC000793092912   -0.1100
     18 F18        -1.2098    1.3720   60.7492 F       1  ZINC000793092912   -0.1500
     19 O19        -1.2900    1.5619   58.4230 O.3     1  ZINC000793092912   -0.2800
     20 C20        -2.0481    2.6785   58.2180 C.ar    1  ZINC000793092912    0.0500
     21 C21        -3.1772    2.8907   57.4459 C.ar    1  ZINC000793092912   -0.0900
     22 C22        -5.6068    3.1634   53.5907 C.3     1  ZINC000793092912    0.1100
     23 C23        -5.4490    2.7790   52.1271 C.3     1  ZINC000793092912   -0.1200
     24 H24        -5.2170    1.7276   51.9570 H       1  ZINC000793092912    0.1400
     25 C25        -4.8604    3.7422   51.1074 C.3     1  ZINC000793092912    0.0000
     26 Cl26       -3.8169    3.0488   49.8108 Cl      1  ZINC000793092912   -0.0800
     27 Cl27       -4.3977    5.3868   51.6842 Cl      1  ZINC000793092912   -0.0900
     28 H28        -7.4144    1.6682   50.3744 H       1  ZINC000793092912    0.0800
     29 H29        -7.4920    3.0729   49.2839 H       1  ZINC000793092912    0.0700
     30 H30        -5.9942    2.1184   49.4005 H       1  ZINC000793092912    0.0700
     31 H31        -6.8269    5.4945   51.1302 H       1  ZINC000793092912    0.0900
     32 H32        -8.2287    4.4342   50.9024 H       1  ZINC000793092912    0.1000
     33 H33        -7.9698    5.6191   53.1681 H       1  ZINC000793092912    0.1100
     34 H34        -8.3430    3.8852   53.1753 H       1  ZINC000793092912    0.0800
     35 H35        -5.7599    4.0116   56.9031 H       1  ZINC000793092912    0.4300
     36 H36        -3.6852    6.1670   58.1242 H       1  ZINC000793092912    0.1500
     37 H37        -1.6852    5.7879   59.5060 H       1  ZINC000793092912    0.1500
     38 H38        -3.5990    2.0794   56.8713 H       1  ZINC000793092912    0.1600
     39 H39        -4.6151    3.3342   54.0097 H       1  ZINC000793092912    0.1400
     40 H40        -6.0908    2.3555   54.1396 H       1  ZINC000793092912    0.1000
@<TRIPOS>BOND
     1     1     2    1
     2     1    28    1
     3     1    29    1
     4     1    30    1
     5     2    23    1
     6     2    25    1
     7     2     3    1
     8     3     4    1
     9     3    31    1
    10     3    32    1
    11     4     5    1
    12     4    33    1
    13     4    34    1
    14     5     6   am
    15     5    22    1
    16     6     7    2
    17     6     8    1
    18     8     9    2
    19     8    10   am
    20    10    11    1
    21    10    35    1
    22    11    21   ar
    23    11    12   ar
    24    12    13   ar
    25    12    36    1
    26    13    14   ar
    27    13    37    1
    28    14    20   ar
    29    14    15    1
    30    15    16    1
    31    16    17    1
    32    16    18    1
    33    16    19    1
    34    19    20    1
    35    20    21   ar
    36    21    38    1
    37    22    23    1
    38    22    39    1
    39    22    40    1
    40    23    24    1
    41    23    25    1
    42    25    26    1
    43    25    27    1
@<TRIPOS>SUBSTRUCTURE
     1 ZINC000793092912        1 TEMP              0 ****  ****    0 ROOT


##########                                Name:    ZINC000742270208
##########                DOCK_Rotatable_Bonds:                   5
##########                         Heavy_Atoms:                  25
##########                    Molecular_Weight:             376.328
##########                DOCK_Rotatable_Bonds:                   5
##########                       Formal_Charge:                0.02
##########                     HBond_Acceptors:                   9
##########                        HBond_Donors:                   0
##########                         Heavy_Atoms:                  25
##########                          Grid_Score:          -25.427650
##########                     Grid_vdw_energy:          -24.246807
##########                      Grid_es_energy:           -1.180844
##########           Internal_energy_repulsive:            8.588496

@<TRIPOS>MOLECULE
ZINC000742270208
 37 38 1 0 0
SMALL
USER_CHARGES


@<TRIPOS>ATOM
      1 C1        -11.7133    4.4585   49.2317 C.3     1  ZINC000742270208   -0.1400
      2 C2        -10.2055    4.5387   48.9844 C.3     1  ZINC000742270208   -0.1400
      3 C3         -9.9037    5.7115   48.0492 C.3     1  ZINC000742270208   -0.1400
      4 C4         -9.4917    4.7452   50.2955 C.2     1  ZINC000742270208    0.4000
      5 O5        -10.1017    5.1555   51.2598 O.2     1  ZINC000742270208   -0.4300
      6 C6         -8.0545    4.4488   50.4055 C.ar    1  ZINC000742270208   -0.1000
      7 C7         -7.1864    5.3819   50.9812 C.ar    1  ZINC000742270208   -0.0900
      8 C8         -5.8409    5.0968   51.0806 C.ar    1  ZINC000742270208   -0.0200
      9 C9         -5.3490    3.8909   50.6122 C.ar    1  ZINC000742270208   -0.6800
     10 S10        -3.6282    3.5359   50.7439 S.o2    1  ZINC000742270208    2.6600
     11 O11        -3.3076    2.6911   49.6473 O.2     1  ZINC000742270208   -0.9300
     12 O12        -2.9796    4.7773   50.9844 O.2     1  ZINC000742270208   -0.9000
     13 O13        -3.4355    2.6998   52.0011 O.3     1  ZINC000742270208   -0.6400
     14 C14        -2.3702    3.0764   52.7581 C.ar    1  ZINC000742270208    0.0500
     15 C15        -2.5716    3.7478   53.9562 C.ar    1  ZINC000742270208    0.0900
     16 F16        -3.8263    4.0279   54.3714 F       1  ZINC000742270208   -0.0900
     17 C17        -1.4850    4.1301   54.7260 C.ar    1  ZINC000742270208    0.1100
     18 F18        -1.6805    4.7836   55.8921 F       1  ZINC000742270208   -0.1000
     19 C19        -0.1992    3.8425   54.3014 C.ar    1  ZINC000742270208   -0.1100
     20 C20         0.0037    3.1732   53.1065 C.ar    1  ZINC000742270208    0.1200
     21 F21         1.2596    2.8937   52.6942 F       1  ZINC000742270208   -0.1000
     22 C22        -1.0803    2.7846   52.3364 C.ar    1  ZINC000742270208    0.1200
     23 F23        -0.8818    2.1312   51.1708 F       1  ZINC000742270208   -0.0900
     24 C24        -6.2017    2.9621   50.0414 C.ar    1  ZINC000742270208   -0.0300
     25 C25        -7.5506    3.2299   49.9403 C.ar    1  ZINC000742270208   -0.0800
     26 H26       -12.2295    4.3092   48.2834 H       1  ZINC000742270208    0.0700
     27 H27       -11.9282    3.6231   49.8979 H       1  ZINC000742270208    0.0600
     28 H28       -12.0562    5.3861   49.6899 H       1  ZINC000742270208    0.0600
     29 H29        -9.8626    3.6111   48.5261 H       1  ZINC000742270208    0.1000
     30 H30       -10.2466    6.6391   48.5075 H       1  ZINC000742270208    0.0700
     31 H31        -8.8295    5.7687   47.8732 H       1  ZINC000742270208    0.0600
     32 H32       -10.4200    5.5622   47.1009 H       1  ZINC000742270208    0.0700
     33 H33        -7.5687    6.3237   51.3464 H       1  ZINC000742270208    0.1500
     34 H34        -5.1692    5.8164   51.5248 H       1  ZINC000742270208    0.1500
     35 H35         0.6468    4.1408   54.9028 H       1  ZINC000742270208    0.1900
     36 H36        -5.8103    2.0234   49.6782 H       1  ZINC000742270208    0.1500
     37 H37        -8.2148    2.5042   49.4946 H       1  ZINC000742270208    0.1500
@<TRIPOS>BOND
     1     1     2    1
     2     1    26    1
     3     1    27    1
     4     1    28    1
     5     2     3    1
     6     2     4    1
     7     2    29    1
     8     3    30    1
     9     3    31    1
    10     3    32    1
    11     4     5    2
    12     4     6    1
    13     6    25   ar
    14     6     7   ar
    15     7     8   ar
    16     7    33    1
    17     8     9   ar
    18     8    34    1
    19     9    10    1
    20     9    24   ar
    21    10    11    2
    22    10    12    2
    23    10    13    1
    24    13    14    1
    25    14    22   ar
    26    14    15   ar
    27    15    16    1
    28    15    17   ar
    29    17    18    1
    30    17    19   ar
    31    19    20   ar
    32    19    35    1
    33    20    21    1
    34    20    22   ar
    35    22    23    1
    36    24    25   ar
    37    24    36    1
    38    25    37    1
@<TRIPOS>SUBSTRUCTURE
     1 ZINC000742270208        1 TEMP              0 ****  ****    0 ROOT


##########                                Name:    ZINC000506388363
##########                DOCK_Rotatable_Bonds:                   5
##########                         Heavy_Atoms:                  29
##########                    Molecular_Weight:             416.858
##########                DOCK_Rotatable_Bonds:                   5
##########                       Formal_Charge:         7.07805e-07
##########                     HBond_Acceptors:                   8
##########                        HBond_Donors:                   1
##########                         Heavy_Atoms:                  29
##########                          Grid_Score:          -25.425930
##########                     Grid_vdw_energy:          -24.417677
##########                      Grid_es_energy:           -1.008253
##########           Internal_energy_repulsive:           11.361073

@<TRIPOS>MOLECULE
ZINC000506388363
 48 51 1 0 0
SMALL
USER_CHARGES


@<TRIPOS>ATOM
      1 O1         -9.3259   -0.1772   52.0108 O.2     1  ZINC000506388363   -0.5300
      2 C2         -9.1210    0.9731   52.3461 C.2     1  ZINC000506388363    0.5600
      3 C3         -8.1098    1.7820   51.6327 C.ar    1  ZINC000506388363   -0.1200
      4 C4         -8.5076    2.8523   50.8302 C.ar    1  ZINC000506388363   -0.0900
      5 C5         -7.5593    3.6040   50.1672 C.ar    1  ZINC000506388363   -0.1100
      6 C6         -6.2164    3.2988   50.2957 C.ar    1  ZINC000506388363   -0.0900
      7 C7         -5.8142    2.2382   51.0901 C.ar    1  ZINC000506388363   -0.0400
      8 Cl8        -4.1263    1.8632   51.2455 Cl      1  ZINC000506388363   -0.0600
      9 C9         -6.7529    1.4820   51.7634 C.ar    1  ZINC000506388363   -0.0600
     10 N10        -9.8195    1.5128   53.3646 N.am    1  ZINC000506388363   -0.6100
     11 C11       -10.8256    0.7237   54.0916 C.3     1  ZINC000506388363    0.1000
     12 C12       -10.5402    0.8358   55.5930 C.3     1  ZINC000506388363    0.0400
     13 N13       -10.4714    2.2538   55.9705 N.3     1  ZINC000506388363   -0.5300
     14 C14       -10.3707    2.4062   57.4281 C.3     1  ZINC000506388363    0.1200
     15 C15       -11.6566    1.9532   58.0704 C.2     1  ZINC000506388363   -0.2100
     16 C16       -12.8748    2.5083   57.8897 C.2     1  ZINC000506388363    0.0600
     17 N17       -13.7627    1.8175   58.6365 N.pl3   1  ZINC000506388363   -0.4700
     18 N18       -13.0715    0.7983   59.3040 N.2     1  ZINC000506388363   -0.2700
     19 C19       -11.8028    0.8720   58.9613 C.2     1  ZINC000506388363    0.1300
     20 C20       -10.7165   -0.0197   59.4378 C.ar    1  ZINC000506388363   -0.0700
     21 C21        -9.9525    0.3389   60.5487 C.ar    1  ZINC000506388363    0.1500
     22 F22       -10.1999    1.4994   61.1946 F       1  ZINC000506388363   -0.1200
     23 C23        -8.9419   -0.4965   60.9874 C.ar    1  ZINC000506388363   -0.1600
     24 C24        -8.6876   -1.6849   60.3277 C.ar    1  ZINC000506388363   -0.0500
     25 C25        -9.4412   -2.0461   59.2258 C.ar    1  ZINC000506388363   -0.1600
     26 C26       -10.4586   -1.2227   58.7803 C.ar    1  ZINC000506388363    0.1600
     27 F27       -11.1940   -1.5768   57.7038 F       1  ZINC000506388363   -0.1200
     28 C28        -9.3591    2.9325   55.2921 C.3     1  ZINC000506388363    0.0400
     29 C29        -9.5916    2.9044   53.7824 C.3     1  ZINC000506388363    0.1200
     30 H30        -9.5559    3.0915   50.7282 H       1  ZINC000506388363    0.1400
     31 H31        -7.8666    4.4324   49.5461 H       1  ZINC000506388363    0.1400
     32 H32        -5.4784    3.8899   49.7739 H       1  ZINC000506388363    0.1400
     33 H33        -6.4386    0.6552   52.3830 H       1  ZINC000506388363    0.1400
     34 H34       -11.8209    1.1135   53.8779 H       1  ZINC000506388363    0.0800
     35 H35       -10.7643   -0.3202   53.7842 H       1  ZINC000506388363    0.1000
     36 H36       -11.3391    0.3489   56.1524 H       1  ZINC000506388363    0.0900
     37 H37        -9.5899    0.3526   55.8196 H       1  ZINC000506388363    0.0400
     38 H38        -9.5452    1.7998   57.8006 H       1  ZINC000506388363    0.1000
     39 H39       -10.1917    3.4532   57.6724 H       1  ZINC000506388363    0.0400
     40 H40       -13.0991    3.3559   57.2590 H       1  ZINC000506388363    0.1800
     41 H41       -14.7140    1.9963   58.7002 H       1  ZINC000506388363    0.4400
     42 H42        -8.3494   -0.2199   61.8471 H       1  ZINC000506388363    0.1500
     43 H43        -7.8968   -2.3337   60.6742 H       1  ZINC000506388363    0.1500
     44 H44        -9.2374   -2.9755   58.7148 H       1  ZINC000506388363    0.1500
     45 H45        -9.3012    3.9661   55.6335 H       1  ZINC000506388363    0.0900
     46 H46        -8.4253    2.4200   55.5231 H       1  ZINC000506388363    0.0400
     47 H47        -8.7167    3.3037   53.2696 H       1  ZINC000506388363    0.1000
     48 H48       -10.4689    3.5027   53.5359 H       1  ZINC000506388363    0.0800
@<TRIPOS>BOND
     1     1     2    2
     2     2     3    1
     3     2    10   am
     4     3     9   ar
     5     3     4   ar
     6     4     5   ar
     7     4    30    1
     8     5     6   ar
     9     5    31    1
    10     6     7   ar
    11     6    32    1
    12     7     8    1
    13     7     9   ar
    14     9    33    1
    15    10    29    1
    16    10    11    1
    17    11    12    1
    18    11    34    1
    19    11    35    1
    20    12    13    1
    21    12    36    1
    22    12    37    1
    23    13    14    1
    24    13    28    1
    25    14    15    1
    26    14    38    1
    27    14    39    1
    28    15    19    1
    29    15    16    2
    30    16    17    1
    31    16    40    1
    32    17    18    1
    33    17    41    1
    34    18    19    2
    35    19    20    1
    36    20    26   ar
    37    20    21   ar
    38    21    22    1
    39    21    23   ar
    40    23    24   ar
    41    23    42    1
    42    24    25   ar
    43    24    43    1
    44    25    26   ar
    45    25    44    1
    46    26    27    1
    47    28    29    1
    48    28    45    1
    49    28    46    1
    50    29    47    1
    51    29    48    1
@<TRIPOS>SUBSTRUCTURE
     1 ZINC000506388363        1 TEMP              0 ****  ****    0 ROOT


##########                                Name:    ZINC001456096501
##########                DOCK_Rotatable_Bonds:                   7
##########                         Heavy_Atoms:                  24
##########                    Molecular_Weight:             333.431
##########                DOCK_Rotatable_Bonds:                   7
##########                       Formal_Charge:          -0.0200003
##########                     HBond_Acceptors:                   6
##########                        HBond_Donors:                   0
##########                         Heavy_Atoms:                  24
##########                          Grid_Score:          -25.412333
##########                     Grid_vdw_energy:          -25.517155
##########                      Grid_es_energy:            0.104821
##########           Internal_energy_repulsive:          144.761673

@<TRIPOS>MOLECULE
ZINC001456096501
 51 52 1 0 0
SMALL
USER_CHARGES


@<TRIPOS>ATOM
      1 C1        -13.9042   -0.4540   56.7533 C.3     1  ZINC001456096501    0.0400
      2 O2        -13.3797   -0.7995   58.0368 O.3     1  ZINC001456096501   -0.2900
      3 C3        -14.1020   -1.6692   58.7824 C.ar    1  ZINC001456096501    0.3700
      4 N4        -14.6094   -2.7528   58.2202 N.ar    1  ZINC001456096501   -0.5400
      5 C5        -15.3185   -3.6263   58.9090 C.ar    1  ZINC001456096501    0.1600
      6 C6        -15.5635   -3.4451   60.2581 C.ar    1  ZINC001456096501   -0.2200
      7 C7        -15.0562   -2.3278   60.8978 C.ar    1  ZINC001456096501   -0.0200
      8 C8        -14.3025   -1.4177   60.1482 C.ar    1  ZINC001456096501   -0.2000
      9 C9        -13.7376   -0.2102   60.7802 C.2     1  ZINC001456096501    0.5900
     10 O10       -14.4587    0.7330   61.0419 O.2     1  ZINC001456096501   -0.5100
     11 N11       -12.4220   -0.1527   61.0674 N.am    1  ZINC001456096501   -0.6200
     12 C12       -11.4406   -1.2159   60.8061 C.3     1  ZINC001456096501    0.1000
     13 C13       -10.0751   -0.7158   61.3226 C.3     1  ZINC001456096501   -0.1200
     14 C14       -10.4714    0.3702   62.3573 C.3     1  ZINC001456096501   -0.1200
     15 H15       -10.7173   -0.0783   63.3199 H       1  ZINC001456096501    0.0900
     16 C16        -9.3627    1.4137   62.5090 C.3     1  ZINC001456096501    0.1200
     17 N17        -9.0865    1.6294   63.9315 N.am    1  ZINC001456096501   -0.6200
     18 C18        -9.4128    2.9146   64.5543 C.3     1  ZINC001456096501    0.0600
     19 C19        -8.5325    0.6454   64.6672 C.2     1  ZINC001456096501    0.5200
     20 O20        -8.2623   -0.4185   64.1517 O.2     1  ZINC001456096501   -0.5300
     21 C21        -8.2484    0.8674   66.1305 C.3     1  ZINC001456096501   -0.0800
     22 C22        -7.8892   -0.4664   66.7883 C.3     1  ZINC001456096501   -0.1300
     23 C23        -7.0784    1.8417   66.2809 C.3     1  ZINC001456096501   -0.1500
     24 C24        -9.4894    1.4523   66.8079 C.3     1  ZINC001456096501   -0.1700
     25 C25       -11.7275    0.9891   61.6898 C.3     1  ZINC001456096501    0.1200
     26 H26       -13.9982   -1.3536   56.1449 H       1  ZINC001456096501    0.0600
     27 H27       -14.8846    0.0073   56.8735 H       1  ZINC001456096501    0.0600
     28 H28       -13.2302    0.2479   56.2622 H       1  ZINC001456096501    0.1000
     29 H29       -15.7151   -4.4982   58.4104 H       1  ZINC001456096501    0.1700
     30 H30       -16.1464   -4.1694   60.8076 H       1  ZINC001456096501    0.1500
     31 H31       -15.2344   -2.1642   61.9504 H       1  ZINC001456096501    0.1500
     32 H32       -11.7277   -2.1239   61.3364 H       1  ZINC001456096501    0.0700
     33 H33       -11.3828   -1.4119   59.7355 H       1  ZINC001456096501    0.0700
     34 H34        -9.5252   -1.5246   61.8039 H       1  ZINC001456096501    0.0900
     35 H35        -9.4916   -0.2809   60.5111 H       1  ZINC001456096501    0.0800
     36 H36        -8.4593    1.0585   62.0133 H       1  ZINC001456096501    0.0800
     37 H37        -9.6818    2.3516   62.0545 H       1  ZINC001456096501    0.0900
     38 H38       -10.4110    2.8646   64.9895 H       1  ZINC001456096501    0.0600
     39 H39        -8.6861    3.1343   65.3364 H       1  ZINC001456096501    0.0900
     40 H40        -9.3843    3.7014   63.8004 H       1  ZINC001456096501    0.0700
     41 H41        -7.0052   -0.8831   66.3058 H       1  ZINC001456096501    0.0600
     42 H42        -7.6838   -0.3059   67.8466 H       1  ZINC001456096501    0.0600
     43 H43        -8.7228   -1.1605   66.6811 H       1  ZINC001456096501    0.0600
     44 H44        -7.2792    2.7429   65.7015 H       1  ZINC001456096501    0.0700
     45 H45        -6.9573    2.1047   67.3317 H       1  ZINC001456096501    0.0700
     46 H46        -6.1650    1.3716   65.9165 H       1  ZINC001456096501    0.0600
     47 H47       -10.3230    0.7582   66.7008 H       1  ZINC001456096501    0.0600
     48 H48        -9.2840    1.6128   67.8662 H       1  ZINC001456096501    0.0700
     49 H49        -9.7453    2.4026   66.3392 H       1  ZINC001456096501    0.0800
     50 H50       -11.4353    1.7193   60.9351 H       1  ZINC001456096501    0.0800
     51 H51       -12.3664    1.4536   62.4410 H       1  ZINC001456096501    0.0700
@<TRIPOS>BOND
     1     1     2    1
     2     1    26    1
     3     1    27    1
     4     1    28    1
     5     2     3    1
     6     3     8   ar
     7     3     4   ar
     8     4     5   ar
     9     5     6   ar
    10     5    29    1
    11     6     7   ar
    12     6    30    1
    13     7     8   ar
    14     7    31    1
    15     8     9    1
    16     9    10    2
    17     9    11   am
    18    11    25    1
    19    11    12    1
    20    12    13    1
    21    12    32    1
    22    12    33    1
    23    13    14    1
    24    13    34    1
    25    13    35    1
    26    14    15    1
    27    14    16    1
    28    14    25    1
    29    16    17    1
    30    16    36    1
    31    16    37    1
    32    17    18    1
    33    17    19   am
    34    18    38    1
    35    18    39    1
    36    18    40    1
    37    19    20    2
    38    19    21    1
    39    21    22    1
    40    21    23    1
    41    21    24    1
    42    22    41    1
    43    22    42    1
    44    22    43    1
    45    23    44    1
    46    23    45    1
    47    23    46    1
    48    24    47    1
    49    24    48    1
    50    24    49    1
    51    25    50    1
    52    25    51    1
@<TRIPOS>SUBSTRUCTURE
     1 ZINC001456096501        1 TEMP              0 ****  ****    0 ROOT


##########                                Name:    ZINC000866034032
##########                DOCK_Rotatable_Bonds:                   4
##########                         Heavy_Atoms:                  23
##########                    Molecular_Weight:             383.242
##########                DOCK_Rotatable_Bonds:                   4
##########                       Formal_Charge:           0.0199999
##########                     HBond_Acceptors:                   6
##########                        HBond_Donors:                   1
##########                         Heavy_Atoms:                  23
##########                          Grid_Score:          -25.400625
##########                     Grid_vdw_energy:          -25.729273
##########                      Grid_es_energy:            0.328647
##########           Internal_energy_repulsive:           12.722865

@<TRIPOS>MOLECULE
ZINC000866034032
 42 44 1 0 0
SMALL
USER_CHARGES


@<TRIPOS>ATOM
      1 C1         -0.1811    4.3647   51.7348 C.3     1  ZINC000866034032   -0.1300
      2 C2          0.6468    3.0986   51.5049 C.3     1  ZINC000866034032   -0.0800
      3 C3         -0.2180    1.8483   51.3324 C.3     1  ZINC000866034032   -0.1300
      4 C4          1.7222    3.2575   50.4191 C.3     1  ZINC000866034032    0.1400
      5 H5          1.4956    4.0382   49.6930 H       1  ZINC000866034032    0.1100
      6 N6          2.1095    1.9924   49.7900 N.am    1  ZINC000866034032   -0.7000
      7 C7          2.5151    1.9754   48.5048 C.2     1  ZINC000866034032    0.5100
      8 O8          2.5579    3.0071   47.8687 O.2     1  ZINC000866034032   -0.5300
      9 C9          2.9152    0.6743   47.8581 C.3     1  ZINC000866034032   -0.1100
     10 C10         2.5839    0.7209   46.3887 C.ar    1  ZINC000866034032   -0.0500
     11 C11         3.5165    1.1943   45.4849 C.ar    1  ZINC000866034032   -0.0500
     12 C12         3.2129    1.2376   44.1370 C.ar    1  ZINC000866034032   -0.0900
     13 C13         1.9760    0.8068   43.6927 C.ar    1  ZINC000866034032   -0.0500
     14 Br14        1.5604    0.8653   41.8489 Br      1  ZINC000866034032    0.0200
     15 C15         1.0431    0.3327   44.5976 C.ar    1  ZINC000866034032   -0.0200
     16 N16        -0.2805   -0.1288   44.1227 N.pl3   1  ZINC000866034032    0.0200
     17 O17        -1.1018   -0.5463   44.9196 O.2     1  ZINC000866034032   -0.1600
     18 O18        -0.5486   -0.0914   42.9352 O.2     1  ZINC000866034032   -0.1300
     19 C19         1.3494    0.2849   45.9444 C.ar    1  ZINC000866034032   -0.0300
     20 C20         2.6833    3.7122   51.5296 C.3     1  ZINC000866034032   -0.1500
     21 H21         2.7653    4.7873   51.6887 H       1  ZINC000866034032    0.1200
     22 C22         4.0224    2.9417   51.5171 C.3     1  ZINC000866034032   -0.1400
     23 C23         3.7925    1.7698   52.4964 C.3     1  ZINC000866034032    0.0500
     24 O24         2.3613    1.5787   52.5138 O.3     1  ZINC000866034032   -0.3600
     25 C25         1.7882    2.9201   52.5168 C.3     1  ZINC000866034032    0.0600
     26 H26         1.6403    3.3538   53.5058 H       1  ZINC000866034032    0.1000
     27 H27         0.4812    5.1886   52.0003 H       1  ZINC000866034032    0.0600
     28 H28        -0.7241    4.6141   50.8233 H       1  ZINC000866034032    0.0700
     29 H29        -0.8902    4.1931   52.5447 H       1  ZINC000866034032    0.0700
     30 H30        -0.7485    1.9017   50.3817 H       1  ZINC000866034032    0.0600
     31 H31         0.4173    0.9626   51.3446 H       1  ZINC000866034032    0.0600
     32 H32        -0.9389    1.7897   52.1479 H       1  ZINC000866034032    0.0600
     33 H33         2.0741    1.1670   50.2983 H       1  ZINC000866034032    0.4100
     34 H34         3.9870    0.5205   47.9841 H       1  ZINC000866034032    0.1100
     35 H35         2.3727   -0.1466   48.3271 H       1  ZINC000866034032    0.1200
     36 H36         4.4823    1.5307   45.8320 H       1  ZINC000866034032    0.1500
     37 H37         3.9413    1.6082   43.4309 H       1  ZINC000866034032    0.1600
     38 H38         0.6213   -0.0856   46.6509 H       1  ZINC000866034032    0.1600
     39 H39         4.2375    2.5665   50.5166 H       1  ZINC000866034032    0.0800
     40 H40         4.8332    3.5798   51.8689 H       1  ZINC000866034032    0.0800
     41 H41         4.2910    0.8702   52.1355 H       1  ZINC000866034032    0.0900
     42 H42         4.1525    2.0307   53.4917 H       1  ZINC000866034032    0.0600
@<TRIPOS>BOND
     1     1     2    1
     2     1    27    1
     3     1    28    1
     4     1    29    1
     5     2    25    1
     6     2     3    1
     7     2     4    1
     8     3    30    1
     9     3    31    1
    10     3    32    1
    11     4     5    1
    12     4     6    1
    13     4    20    1
    14     6     7   am
    15     6    33    1
    16     7     8    2
    17     7     9    1
    18     9    10    1
    19     9    34    1
    20     9    35    1
    21    10    19   ar
    22    10    11   ar
    23    11    12   ar
    24    11    36    1
    25    12    13   ar
    26    12    37    1
    27    13    14    1
    28    13    15   ar
    29    15    16    1
    30    15    19   ar
    31    16    17    2
    32    16    18    2
    33    19    38    1
    34    20    21    1
    35    20    25    1
    36    20    22    1
    37    22    23    1
    38    22    39    1
    39    22    40    1
    40    23    24    1
    41    23    41    1
    42    23    42    1
    43    24    25    1
    44    25    26    1
@<TRIPOS>SUBSTRUCTURE
     1 ZINC000866034032        1 TEMP              0 ****  ****    0 ROOT


##########                                Name:    ZINC000375477402
##########                DOCK_Rotatable_Bonds:                   5
##########                         Heavy_Atoms:                  26
##########                    Molecular_Weight:             378.342
##########                DOCK_Rotatable_Bonds:                   5
##########                       Formal_Charge:         -1.2666e-07
##########                     HBond_Acceptors:                   9
##########                        HBond_Donors:                   1
##########                         Heavy_Atoms:                  26
##########                          Grid_Score:          -25.371395
##########                     Grid_vdw_energy:          -24.768929
##########                      Grid_es_energy:           -0.602466
##########           Internal_energy_repulsive:            7.206915

@<TRIPOS>MOLECULE
ZINC000375477402
 45 47 1 0 0
SMALL
USER_CHARGES


@<TRIPOS>ATOM
      1 O1         -8.9499   -1.2997   51.7523 O.2     1  ZINC000375477402   -0.5600
      2 C2         -9.0129   -0.1721   52.2030 C.2     1  ZINC000375477402    0.7200
      3 N3         -9.9960    0.1551   53.0650 N.am    1  ZINC000375477402   -0.7300
      4 C4        -10.9921   -0.8461   53.4543 C.3     1  ZINC000375477402    0.1800
      5 H5        -10.6472   -1.8365   53.1573 H       1  ZINC000375477402    0.1500
      6 C6        -11.1848   -0.8085   54.9485 C.ar    1  ZINC000375477402   -0.1300
      7 C7        -11.2203    0.4044   55.6103 C.ar    1  ZINC000375477402   -0.0800
      8 C8        -11.3969    0.4407   56.9811 C.ar    1  ZINC000375477402   -0.0900
      9 C9        -11.5383   -0.7359   57.6925 C.ar    1  ZINC000375477402   -0.1100
     10 C10       -11.5032   -1.9520   57.0326 C.ar    1  ZINC000375477402    0.0800
     11 F11       -11.6414   -3.1025   57.7273 F       1  ZINC000375477402   -0.1200
     12 C12       -11.3318   -1.9881   55.6572 C.ar    1  ZINC000375477402    0.1000
     13 F13       -11.2972   -3.1741   55.0110 F       1  ZINC000375477402   -0.1100
     14 C14       -12.3210   -0.5398   52.7609 C.3     1  ZINC000375477402    0.4400
     15 F15       -12.1996   -0.7880   51.3895 F       1  ZINC000375477402   -0.1600
     16 F16       -13.3247   -1.3549   53.2952 F       1  ZINC000375477402   -0.1700
     17 F17       -12.6541    0.8038   52.9639 F       1  ZINC000375477402   -0.1800
     18 N18        -8.0965    0.7489   51.8448 N.am    1  ZINC000375477402   -0.6300
     19 C19        -6.9725    0.5276   50.9159 C.3     1  ZINC000375477402    0.1000
     20 C20        -6.6247    1.9355   50.3680 C.3     1  ZINC000375477402   -0.1200
     21 C21        -6.8640    2.8188   51.6128 C.3     1  ZINC000375477402   -0.1100
     22 C22        -8.0550    2.1446   52.3106 C.3     1  ZINC000375477402    0.1400
     23 C23        -5.6316    2.8104   52.5086 C.3     1  ZINC000375477402   -0.1100
     24 C24        -5.8705    3.7439   53.7012 C.3     1  ZINC000375477402   -0.1600
     25 C25        -6.2298    5.1382   53.1807 C.3     1  ZINC000375477402    0.0600
     26 O26        -7.3923    5.0538   52.3537 O.3     1  ZINC000375477402   -0.3800
     27 C27        -7.2222    4.2375   51.1915 C.3     1  ZINC000375477402    0.0800
     28 H28       -10.0438    1.0535   53.4276 H       1  ZINC000375477402    0.4000
     29 H29       -11.1096    1.3248   55.0561 H       1  ZINC000375477402    0.1400
     30 H30       -11.4240    1.3893   57.4966 H       1  ZINC000375477402    0.1500
     31 H31       -11.6759   -0.7062   58.7632 H       1  ZINC000375477402    0.1500
     32 H32        -6.1191    0.1060   51.4471 H       1  ZINC000375477402    0.0700
     33 H33        -7.2769   -0.1311   50.1025 H       1  ZINC000375477402    0.0700
     34 H34        -5.5839    1.9844   50.0483 H       1  ZINC000375477402    0.0900
     35 H35        -7.2951    2.2154   49.5555 H       1  ZINC000375477402    0.0800
     36 H36        -8.9794    2.6580   52.0461 H       1  ZINC000375477402    0.0800
     37 H37        -7.9123    2.1650   53.3911 H       1  ZINC000375477402    0.0700
     38 H38        -5.4501    1.7979   52.8691 H       1  ZINC000375477402    0.0700
     39 H39        -4.7672    3.1569   51.9423 H       1  ZINC000375477402    0.0700
     40 H40        -6.6905    3.3585   54.3073 H       1  ZINC000375477402    0.0700
     41 H41        -4.9651    3.8024   54.3054 H       1  ZINC000375477402    0.0800
     42 H42        -6.4305    5.7999   54.0233 H       1  ZINC000375477402    0.1000
     43 H43        -5.3978    5.5340   52.5983 H       1  ZINC000375477402    0.0500
     44 H44        -6.4216    4.6461   50.5749 H       1  ZINC000375477402    0.0600
     45 H45        -8.1496    4.2230   50.6191 H       1  ZINC000375477402    0.1000
@<TRIPOS>BOND
     1     1     2    2
     2     2     3   am
     3     2    18   am
     4     3     4    1
     5     3    28    1
     6     4     5    1
     7     4     6    1
     8     4    14    1
     9     6    12   ar
    10     6     7   ar
    11     7     8   ar
    12     7    29    1
    13     8     9   ar
    14     8    30    1
    15     9    10   ar
    16     9    31    1
    17    10    11    1
    18    10    12   ar
    19    12    13    1
    20    14    15    1
    21    14    16    1
    22    14    17    1
    23    18    22    1
    24    18    19    1
    25    19    20    1
    26    19    32    1
    27    19    33    1
    28    20    21    1
    29    20    34    1
    30    20    35    1
    31    21    27    1
    32    21    22    1
    33    21    23    1
    34    22    36    1
    35    22    37    1
    36    23    24    1
    37    23    38    1
    38    23    39    1
    39    24    25    1
    40    24    40    1
    41    24    41    1
    42    25    26    1
    43    25    42    1
    44    25    43    1
    45    26    27    1
    46    27    44    1
    47    27    45    1
@<TRIPOS>SUBSTRUCTURE
     1 ZINC000375477402        1 TEMP              0 ****  ****    0 ROOT


##########                                Name:    ZINC000341804698
##########                DOCK_Rotatable_Bonds:                   7
##########                         Heavy_Atoms:                  24
##########                    Molecular_Weight:             342.318
##########                DOCK_Rotatable_Bonds:                   7
##########                       Formal_Charge:                0.02
##########                     HBond_Acceptors:                   8
##########                        HBond_Donors:                   0
##########                         Heavy_Atoms:                  24
##########                          Grid_Score:          -25.357515
##########                     Grid_vdw_energy:          -24.886965
##########                      Grid_es_energy:           -0.470550
##########           Internal_energy_repulsive:           13.499495

@<TRIPOS>MOLECULE
ZINC000341804698
 41 42 1 0 0
SMALL
USER_CHARGES


@<TRIPOS>ATOM
      1 C1        -14.4933   -4.8696   55.9266 C.3     1  ZINC000341804698    0.0300
      2 O2        -13.4169   -4.3585   56.7155 O.3     1  ZINC000341804698   -0.3900
      3 C3        -13.1170   -2.9833   56.4683 C.3     1  ZINC000341804698    0.0700
      4 C4        -12.4906   -2.3650   57.7197 C.3     1  ZINC000341804698    0.0400
      5 C5        -13.4331   -2.4746   58.8452 C.1     1  ZINC000341804698    0.2200
      6 N6        -14.1603   -2.5593   59.7137 N.1     1  ZINC000341804698   -0.4200
      7 C7        -11.1978   -3.1084   58.0633 C.3     1  ZINC000341804698   -0.1200
      8 C8        -10.5917   -2.5091   59.3362 C.3     1  ZINC000341804698    0.1100
      9 N9        -10.4230   -1.0623   59.1439 N.am    1  ZINC000341804698   -0.6000
     10 C10        -9.2261   -0.4774   59.3482 C.2     1  ZINC000341804698    0.5700
     11 O11        -8.2733   -1.1478   59.6951 O.2     1  ZINC000341804698   -0.5200
     12 C12        -9.0719    0.9797   59.1505 C.ar    1  ZINC000341804698   -0.0900
     13 C13        -9.2568    1.8552   60.2216 C.ar    1  ZINC000341804698   -0.1100
     14 C14        -9.1122    3.2147   60.0335 C.ar    1  ZINC000341804698   -0.0800
     15 C15        -8.7845    3.7134   58.7866 C.ar    1  ZINC000341804698   -0.1700
     16 C16        -8.5990    2.8503   57.7149 C.ar    1  ZINC000341804698    0.1100
     17 O17        -8.2773    3.3461   56.4910 O.3     1  ZINC000341804698   -0.3100
     18 C18        -7.0919    2.8372   55.8760 C.3     1  ZINC000341804698    0.6000
     19 F19        -6.2518    2.2992   56.8568 F       1  ZINC000341804698   -0.1600
     20 F20        -7.4347    1.8396   54.9572 F       1  ZINC000341804698   -0.1300
     21 F21        -6.4288    3.8748   55.2121 F       1  ZINC000341804698   -0.1600
     22 C22        -8.7354    1.4841   57.8938 C.ar    1  ZINC000341804698   -0.0700
     23 C23       -11.5837   -0.2653   58.7240 C.3     1  ZINC000341804698    0.0900
     24 C24       -12.1786   -0.8897   57.4580 C.3     1  ZINC000341804698   -0.1200
     25 H25       -15.3990   -4.3003   56.1352 H       1  ZINC000341804698    0.0400
     26 H26       -14.2432   -4.7800   54.8694 H       1  ZINC000341804698    0.0500
     27 H27       -14.6584   -5.9184   56.1732 H       1  ZINC000341804698    0.0900
     28 H28       -12.4168   -2.9082   55.6364 H       1  ZINC000341804698    0.0700
     29 H29       -14.0348   -2.4502   56.2200 H       1  ZINC000341804698    0.0600
     30 H30       -11.4173   -4.1634   58.2268 H       1  ZINC000341804698    0.1000
     31 H31       -10.4900   -3.0067   57.2406 H       1  ZINC000341804698    0.0900
     32 H32       -11.2589   -2.6902   60.1790 H       1  ZINC000341804698    0.0700
     33 H33        -9.6221   -2.9675   59.5301 H       1  ZINC000341804698    0.1100
     34 H34        -9.5132    1.4690   61.1970 H       1  ZINC000341804698    0.1400
     35 H35        -9.2559    3.8912   60.8631 H       1  ZINC000341804698    0.1400
     36 H36        -8.6726    4.7783   58.6453 H       1  ZINC000341804698    0.1400
     37 H37        -8.5911    0.8116   57.0612 H       1  ZINC000341804698    0.1500
     38 H38       -12.3317   -0.2635   59.5168 H       1  ZINC000341804698    0.0800
     39 H39       -11.2685    0.7568   58.5139 H       1  ZINC000341804698    0.1100
     40 H40       -11.4616   -0.8090   56.6409 H       1  ZINC000341804698    0.1000
     41 H41       -13.0963   -0.3657   57.1904 H       1  ZINC000341804698    0.0900
@<TRIPOS>BOND
     1     1     2    1
     2     1    25    1
     3     1    26    1
     4     1    27    1
     5     2     3    1
     6     3     4    1
     7     3    28    1
     8     3    29    1
     9     4    24    1
    10     4     5    1
    11     4     7    1
    12     5     6    3
    13     7     8    1
    14     7    30    1
    15     7    31    1
    16     8     9    1
    17     8    32    1
    18     8    33    1
    19     9    10   am
    20     9    23    1
    21    10    11    2
    22    10    12    1
    23    12    22   ar
    24    12    13   ar
    25    13    14   ar
    26    13    34    1
    27    14    15   ar
    28    14    35    1
    29    15    16   ar
    30    15    36    1
    31    16    17    1
    32    16    22   ar
    33    17    18    1
    34    18    19    1
    35    18    20    1
    36    18    21    1
    37    22    37    1
    38    23    24    1
    39    23    38    1
    40    23    39    1
    41    24    40    1
    42    24    41    1
@<TRIPOS>SUBSTRUCTURE
     1 ZINC000341804698        1 TEMP              0 ****  ****    0 ROOT


##########                                Name:    ZINC001401207732
##########                DOCK_Rotatable_Bonds:                   8
##########                         Heavy_Atoms:                  23
##########                    Molecular_Weight:             337.446
##########                DOCK_Rotatable_Bonds:                   8
##########                       Formal_Charge:          -0.0199995
##########                     HBond_Acceptors:                   8
##########                        HBond_Donors:                   1
##########                         Heavy_Atoms:                  23
##########                          Grid_Score:          -25.349155
##########                     Grid_vdw_energy:          -22.780722
##########                      Grid_es_energy:           -2.568433
##########           Internal_energy_repulsive:           24.028996

@<TRIPOS>MOLECULE
ZINC001401207732
 46 47 1 0 0
SMALL
USER_CHARGES


@<TRIPOS>ATOM
      1 C1        -14.2546    1.9315   65.0991 C.3     1  ZINC001401207732   -0.0900
      2 C2        -14.4645    1.0214   63.9163 C.2     1  ZINC001401207732    0.1500
      3 C3        -13.4434    0.5571   63.1534 C.2     1  ZINC001401207732   -0.3000
      4 C4        -12.0189    0.8514   63.3428 C.2     1  ZINC001401207732    0.6100
      5 O5        -11.4782    0.5859   64.4002 O.2     1  ZINC001401207732   -0.5200
      6 N6        -11.3090    1.4158   62.3459 N.am    1  ZINC001401207732   -0.5900
      7 C7        -11.9601    1.7354   61.0730 C.3     1  ZINC001401207732    0.0700
      8 C8         -9.8864    1.7098   62.5352 C.3     1  ZINC001401207732    0.1400
      9 H9         -9.4743    2.1197   61.6131 H       1  ZINC001401207732    0.1100
     10 C10        -9.7220    2.7289   63.6645 C.3     1  ZINC001401207732   -0.1600
     11 C11        -9.1433    0.4224   62.8978 C.3     1  ZINC001401207732    0.0500
     12 N12        -9.6227   -0.6755   62.0477 N.3     1  ZINC001401207732   -0.6800
     13 C13        -8.8075   -0.7939   60.8313 C.3     1  ZINC001401207732    0.1500
     14 C14        -9.6092   -1.4778   59.7539 C.2     1  ZINC001401207732    0.1800
     15 N15       -10.4753   -0.9129   58.9477 N.2     1  ZINC001401207732   -0.4800
     16 C16       -10.9379   -1.9023   58.1628 C.2     1  ZINC001401207732    0.1800
     17 C17       -11.9614   -1.7655   57.0651 C.3     1  ZINC001401207732   -0.0100
     18 C18       -11.6312   -2.7428   55.9352 C.3     1  ZINC001401207732   -0.1500
     19 C19       -13.3513   -2.0802   57.6216 C.3     1  ZINC001401207732   -0.1500
     20 N20       -10.3406   -2.9980   58.5251 N.2     1  ZINC001401207732   -0.3800
     21 O21        -9.5689   -2.7747   59.4339 O.3     1  ZINC001401207732    0.0900
     22 S22       -14.1356   -0.4569   61.8893 S.3     1  ZINC001401207732    0.1800
     23 C23       -15.7042   -0.1707   62.5058 C.2     1  ZINC001401207732    0.0100
     24 N24       -15.6482    0.6100   63.5367 N.2     1  ZINC001401207732   -0.4800
     25 H25       -14.2909    2.9699   64.7695 H       1  ZINC001401207732    0.0800
     26 H26       -15.0386    1.7564   65.8357 H       1  ZINC001401207732    0.0800
     27 H27       -13.2825    1.7263   65.5473 H       1  ZINC001401207732    0.1000
     28 H28       -11.9743    0.8484   60.4395 H       1  ZINC001401207732    0.0600
     29 H29       -12.9821    2.0647   61.2602 H       1  ZINC001401207732    0.0800
     30 H30       -11.4080    2.5306   60.5722 H       1  ZINC001401207732    0.0900
     31 H31        -8.6634    2.9476   63.8052 H       1  ZINC001401207732    0.0700
     32 H32       -10.2512    3.6461   63.4061 H       1  ZINC001401207732    0.0700
     33 H33       -10.1340    2.3191   64.5866 H       1  ZINC001401207732    0.0600
     34 H34        -9.3279    0.1790   63.9442 H       1  ZINC001401207732    0.0800
     35 H35        -8.0741    0.5634   62.7406 H       1  ZINC001401207732    0.0500
     36 H36       -10.5982   -0.5563   61.8190 H       1  ZINC001401207732    0.3600
     37 H37        -7.9149   -1.3808   61.0479 H       1  ZINC001401207732    0.1100
     38 H38        -8.5154    0.1998   60.4916 H       1  ZINC001401207732    0.0800
     39 H39       -11.9466   -0.7460   56.6795 H       1  ZINC001401207732    0.1000
     40 H40       -12.3714   -2.6438   55.1413 H       1  ZINC001401207732    0.0700
     41 H41       -10.6409   -2.5186   55.5387 H       1  ZINC001401207732    0.0600
     42 H42       -11.6460   -3.7623   56.3206 H       1  ZINC001401207732    0.0600
     43 H43       -13.5866   -1.3840   58.4266 H       1  ZINC001401207732    0.0600
     44 H44       -14.0916   -1.9812   56.8278 H       1  ZINC001401207732    0.0700
     45 H45       -13.3662   -3.0996   58.0071 H       1  ZINC001401207732    0.0600
     46 H46       -16.6137   -0.5794   62.0909 H       1  ZINC001401207732    0.2000
@<TRIPOS>BOND
     1     1     2    1
     2     1    25    1
     3     1    26    1
     4     1    27    1
     5     2    24    1
     6     2     3    2
     7     3     4    1
     8     3    22    1
     9     4     5    2
    10     4     6   am
    11     6     7    1
    12     6     8    1
    13     7    28    1
    14     7    29    1
    15     7    30    1
    16     8     9    1
    17     8    10    1
    18     8    11    1
    19    10    31    1
    20    10    32    1
    21    10    33    1
    22    11    12    1
    23    11    34    1
    24    11    35    1
    25    12    13    1
    26    12    36    1
    27    13    14    1
    28    13    37    1
    29    13    38    1
    30    14    21    1
    31    14    15    2
    32    15    16    1
    33    16    17    1
    34    16    20    2
    35    17    18    1
    36    17    19    1
    37    17    39    1
    38    18    40    1
    39    18    41    1
    40    18    42    1
    41    19    43    1
    42    19    44    1
    43    19    45    1
    44    20    21    1
    45    22    23    1
    46    23    24    2
    47    23    46    1
@<TRIPOS>SUBSTRUCTURE
     1 ZINC001401207732        1 TEMP              0 ****  ****    0 ROOT


##########                                Name:    ZINC001231746020
##########                DOCK_Rotatable_Bonds:                   3
##########                         Heavy_Atoms:                  19
##########                    Molecular_Weight:             348.667
##########                DOCK_Rotatable_Bonds:                   3
##########                       Formal_Charge:          -0.0399997
##########                     HBond_Acceptors:                   4
##########                        HBond_Donors:                   2
##########                         Heavy_Atoms:                  19
##########                          Grid_Score:          -25.314327
##########                     Grid_vdw_energy:          -23.070982
##########                      Grid_es_energy:           -2.243346
##########           Internal_energy_repulsive:           11.762816

@<TRIPOS>MOLECULE
ZINC001231746020
 38 39 1 0 0
SMALL
USER_CHARGES


@<TRIPOS>ATOM
      1 C1         -6.4859    4.9194   51.1201 C.3     1  ZINC001231746020   -0.1500
      2 C2         -5.0426    4.4238   51.2309 C.3     1  ZINC001231746020   -0.0900
      3 H3         -4.3605    5.2106   50.9085 H       1  ZINC001231746020    0.0800
      4 C4         -4.7450    4.0523   52.6590 C.3     1  ZINC001231746020   -0.1400
      5 C5         -3.2763    4.2799   53.0595 C.3     1  ZINC001231746020   -0.0100
      6 N6         -2.3086    3.8448   52.0296 N.4     1  ZINC001231746020   -0.3800
      7 H7         -2.2607    4.5469   51.3065 H       1  ZINC001231746020    0.4100
      8 C8         -0.9834    3.7044   52.6476 C.3     1  ZINC001231746020    0.0700
      9 C9          0.0301    3.3538   51.5889 C.ar    1  ZINC001231746020   -0.3100
     10 C10         0.5066    4.3339   50.7384 C.ar    1  ZINC001231746020   -0.0300
     11 C11         1.4369    4.0150   49.7664 C.ar    1  ZINC001231746020   -0.1600
     12 Cl12        2.0348    5.2463   48.6987 Cl      1  ZINC001231746020   -0.0800
     13 C13         1.8918    2.7095   49.6450 C.ar    1  ZINC001231746020    0.3100
     14 O14         2.8068    2.3932   48.6906 O.3     1  ZINC001231746020   -0.6300
     15 C15         1.4113    1.7276   50.5000 C.ar    1  ZINC001231746020   -0.2100
     16 Br16        2.0282   -0.0527   50.3384 Br      1  ZINC001231746020   -0.0600
     17 C17         0.4860    2.0533   51.4737 C.ar    1  ZINC001231746020   -0.0200
     18 C18        -2.6850    2.5854   51.4346 C.3     1  ZINC001231746020   -0.0200
     19 C19        -3.4395    2.8869   50.1296 C.3     1  ZINC001231746020   -0.1800
     20 C20        -4.8538    3.1716   50.3385 C.3     1  ZINC001231746020    0.1000
     21 H21        -5.3303    3.3446   49.3736 H       1  ZINC001231746020    0.0700
     22 O22        -5.4703    2.0478   50.9704 O.3     1  ZINC001231746020   -0.5600
     23 H23        -6.6198    5.7935   51.7574 H       1  ZINC001231746020    0.0600
     24 H24        -7.1665    4.1298   51.4385 H       1  ZINC001231746020    0.0700
     25 H25        -6.6994    5.1879   50.0854 H       1  ZINC001231746020    0.0600
     26 H26        -5.3816    4.6469   53.3142 H       1  ZINC001231746020    0.1000
     27 H27        -4.9848    2.9988   52.8029 H       1  ZINC001231746020    0.1000
     28 H28        -3.1276    5.3426   53.2510 H       1  ZINC001231746020    0.1200
     29 H29        -3.0766    3.7311   53.9797 H       1  ZINC001231746020    0.1200
     30 H30        -0.7025    4.6445   53.1224 H       1  ZINC001231746020    0.1200
     31 H31        -1.0141    2.9137   53.3973 H       1  ZINC001231746020    0.1200
     32 H32         0.1521    5.3496   50.8334 H       1  ZINC001231746020    0.1100
     33 H33         0.1155    1.2906   52.1427 H       1  ZINC001231746020    0.1100
     34 H34        -1.7924    1.9986   51.2176 H       1  ZINC001231746020    0.1400
     35 H35        -3.3320    2.0339   52.1167 H       1  ZINC001231746020    0.1300
     36 H36        -2.9762    3.7479   49.6479 H       1  ZINC001231746020    0.0900
     37 H37        -3.3513    2.0260   49.4669 H       1  ZINC001231746020    0.1100
     38 H38        -6.4147    2.1630   51.1432 H       1  ZINC001231746020    0.3900
@<TRIPOS>BOND
     1     1     2    1
     2     1    23    1
     3     1    24    1
     4     1    25    1
     5     2     3    1
     6     2    20    1
     7     2     4    1
     8     4     5    1
     9     4    26    1
    10     4    27    1
    11     5     6    1
    12     5    28    1
    13     5    29    1
    14     6     7    1
    15     6     8    1
    16     6    18    1
    17     8     9    1
    18     8    30    1
    19     8    31    1
    20     9    17   ar
    21     9    10   ar
    22    10    11   ar
    23    10    32    1
    24    11    12    1
    25    11    13   ar
    26    13    14    1
    27    13    15   ar
    28    15    16    1
    29    15    17   ar
    30    17    33    1
    31    18    19    1
    32    18    34    1
    33    18    35    1
    34    19    20    1
    35    19    36    1
    36    19    37    1
    37    20    21    1
    38    20    22    1
    39    22    38    1
@<TRIPOS>SUBSTRUCTURE
     1 ZINC001231746020        1 TEMP              0 ****  ****    0 ROOT


##########                                Name:    ZINC000543020509
##########                DOCK_Rotatable_Bonds:                   5
##########                         Heavy_Atoms:                  26
##########                    Molecular_Weight:              366.81
##########                DOCK_Rotatable_Bonds:                   5
##########                       Formal_Charge:               -0.02
##########                     HBond_Acceptors:                   8
##########                        HBond_Donors:                   1
##########                         Heavy_Atoms:                  26
##########                          Grid_Score:          -25.291574
##########                     Grid_vdw_energy:          -25.559080
##########                      Grid_es_energy:            0.267506
##########           Internal_energy_repulsive:           12.322956

@<TRIPOS>MOLECULE
ZINC000543020509
 41 43 1 0 0
SMALL
USER_CHARGES


@<TRIPOS>ATOM
      1 C1          2.4565    3.2308   41.3023 C.3     1  ZINC000543020509    0.0800
      2 N2          1.3130    2.3372   41.1018 N.pl3   1  ZINC000543020509   -0.6200
      3 C3          0.6385    2.2910   39.8022 C.3     1  ZINC000543020509    0.0900
      4 C4          0.8674    1.5320   42.1462 C.ar    1  ZINC000543020509    0.2500
      5 C5         -0.2194    0.6764   41.9748 C.ar    1  ZINC000543020509   -0.2200
      6 C6         -0.6346   -0.1095   43.0340 C.ar    1  ZINC000543020509    0.1400
      7 N7         -0.0193   -0.0603   44.1965 N.ar    1  ZINC000543020509   -0.5000
      8 C8          1.0207    0.7399   44.4056 C.ar    1  ZINC000543020509    0.1100
      9 C9          1.6781    0.7572   45.7329 C.2     1  ZINC000543020509    0.5900
     10 O10         1.1160    0.2734   46.6958 O.2     1  ZINC000543020509   -0.5000
     11 N11         2.8995    1.3093   45.8729 N.am    1  ZINC000543020509   -0.6200
     12 C12         3.5213    1.3241   47.1267 C.2     1  ZINC000543020509    0.3200
     13 N13         3.1038    1.9783   48.1851 N.2     1  ZINC000543020509   -0.3100
     14 N14         4.0003    1.7331   49.2333 N.pl3   1  ZINC000543020509   -0.3300
     15 C15         3.9098    2.2468   50.5293 C.ar    1  ZINC000543020509    0.2200
     16 C16         4.5371    3.4414   50.8505 C.ar    1  ZINC000543020509   -0.1300
     17 C17         4.4468    3.9483   52.1323 C.ar    1  ZINC000543020509   -0.0500
     18 C18         3.7311    3.2698   53.1056 C.ar    1  ZINC000543020509   -0.0600
     19 Cl19        3.6267    3.9194   54.7121 Cl      1  ZINC000543020509   -0.0500
     20 C20         3.1004    2.0800   52.8033 C.ar    1  ZINC000543020509   -0.0400
     21 C21         3.1792    1.5594   51.5101 C.ar    1  ZINC000543020509   -0.0200
     22 C22         2.5272    0.3254   51.1897 C.1     1  ZINC000543020509    0.2500
     23 N23         2.0099   -0.6536   50.9355 N.1     1  ZINC000543020509   -0.3800
     24 C24         4.9731    0.9072   48.7668 C.2     1  ZINC000543020509    0.0700
     25 C25         4.6973    0.6362   47.4713 C.2     1  ZINC000543020509   -0.2400
     26 C26         1.5010    1.5570   43.3885 C.ar    1  ZINC000543020509   -0.1800
     27 H27         2.1031    4.1993   41.6562 H       1  ZINC000543020509    0.0600
     28 H28         3.1307    2.7979   42.0414 H       1  ZINC000543020509    0.0700
     29 H29         2.9865    3.3600   40.3587 H       1  ZINC000543020509    0.0700
     30 H30         1.1243    2.9847   39.1158 H       1  ZINC000543020509    0.0800
     31 H31         0.6964    1.2802   39.3984 H       1  ZINC000543020509    0.0600
     32 H32        -0.4069    2.5738   39.9251 H       1  ZINC000543020509    0.0600
     33 H33        -0.7320    0.6281   41.0254 H       1  ZINC000543020509    0.1400
     34 H34        -1.4765   -0.7736   42.9055 H       1  ZINC000543020509    0.1700
     35 H35         3.3477    1.6964   45.1047 H       1  ZINC000543020509    0.4300
     36 H36         5.0971    3.9759   50.0974 H       1  ZINC000543020509    0.1500
     37 H37         4.9374    4.8787   52.3773 H       1  ZINC000543020509    0.1500
     38 H38         2.5435    1.5544   53.5649 H       1  ZINC000543020509    0.1500
     39 H39         5.8138    0.5311   49.3310 H       1  ZINC000543020509    0.1900
     40 H40         5.2811    0.0075   46.8155 H       1  ZINC000543020509    0.1800
     41 H41         2.3467    2.2065   43.5600 H       1  ZINC000543020509    0.1500
@<TRIPOS>BOND
     1     1     2    1
     2     1    27    1
     3     1    28    1
     4     1    29    1
     5     2     3    1
     6     2     4    1
     7     3    30    1
     8     3    31    1
     9     3    32    1
    10     4    26   ar
    11     4     5   ar
    12     5     6   ar
    13     5    33    1
    14     6     7   ar
    15     6    34    1
    16     7     8   ar
    17     8     9    1
    18     8    26   ar
    19     9    10    2
    20     9    11   am
    21    11    12    1
    22    11    35    1
    23    12    25    1
    24    12    13    2
    25    13    14    1
    26    14    15    1
    27    14    24    1
    28    15    21   ar
    29    15    16   ar
    30    16    17   ar
    31    16    36    1
    32    17    18   ar
    33    17    37    1
    34    18    19    1
    35    18    20   ar
    36    20    21   ar
    37    20    38    1
    38    21    22    1
    39    22    23    3
    40    24    25    2
    41    24    39    1
    42    25    40    1
    43    26    41    1
@<TRIPOS>SUBSTRUCTURE
     1 ZINC000543020509        1 TEMP              0 ****  ****    0 ROOT


##########                                Name:    ZINC000493443319
##########                DOCK_Rotatable_Bonds:                   6
##########                         Heavy_Atoms:                  25
##########                    Molecular_Weight:             348.399
##########                DOCK_Rotatable_Bonds:                   6
##########                       Formal_Charge:        -3.27826e-07
##########                     HBond_Acceptors:                   7
##########                        HBond_Donors:                   0
##########                         Heavy_Atoms:                  25
##########                          Grid_Score:          -25.205736
##########                     Grid_vdw_energy:          -24.250181
##########                      Grid_es_energy:           -0.955555
##########           Internal_energy_repulsive:           49.776741

@<TRIPOS>MOLECULE
ZINC000493443319
 49 51 1 0 0
SMALL
USER_CHARGES


@<TRIPOS>ATOM
      1 C1        -11.9000   -2.4385   54.7263 C.3     1  <0>        -0.1500
      2 C2        -12.1528   -1.2964   55.7124 C.3     1  <0>         0.0500
      3 O3        -12.5741   -0.1336   54.9966 O.3     1  <0>        -0.3200
      4 C4        -11.6717    0.4313   54.1506 C.ar    1  <0>         0.1000
      5 C5        -10.3582    0.6122   54.5579 C.ar    1  <0>        -0.1700
      6 C6         -9.4415    1.1860   53.6986 C.ar    1  <0>        -0.1100
      7 C7         -9.8344    1.5808   52.4283 C.ar    1  <0>         0.0800
      8 O8         -8.9320    2.1460   51.5826 O.3     1  <0>        -0.3000
      9 C9         -8.7612    3.5622   51.6681 C.3     1  <0>         0.1000
     10 C10        -8.5935    4.1416   50.2620 C.3     1  <0>        -0.1800
     11 C11        -9.9904    4.1849   52.3331 C.3     1  <0>        -0.1500
     12 C12        -7.5353    3.8717   52.4884 C.2     1  <0>         0.5100
     13 O13        -7.5932    4.6926   53.3792 O.2     1  <0>        -0.5200
     14 N14        -6.3749    3.2362   52.2318 N.am    1  <0>        -0.6000
     15 C15        -6.3017    2.2419   51.1540 C.3     1  <0>         0.0700
     16 C16        -5.1941    2.6497   50.1693 C.3     1  <0>         0.1300
     17 N17        -4.0148    3.0205   50.9639 N.am    1  <0>        -0.6300
     18 C18        -2.7677    2.5585   50.8599 C.2     1  <0>         0.6500
     19 O19        -2.3940    1.8526   49.9441 O.2     1  <0>        -0.5200
     20 O20        -1.9665    2.9465   51.8612 O.3     1  <0>        -0.3200
     21 C21        -2.6930    3.8547   52.7411 C.3     1  <0>         0.0500
     22 C22        -4.0703    3.9970   52.0731 C.3     1  <0>         0.0800
     23 H23        -4.2358    5.0107   51.7083 H       1  <0>         0.1100
     24 C24        -5.1751    3.5407   53.0266 C.3     1  <0>         0.1000
     25 C25       -11.1474    1.3985   52.0206 C.ar    1  <0>        -0.1800
     26 C26       -12.0633    0.8212   52.8786 C.ar    1  <0>        -0.1100
     27 H27       -11.5786   -3.3255   55.2722 H       1  <0>         0.0800
     28 H28       -12.8186   -2.6594   54.1828 H       1  <0>         0.0700
     29 H29       -11.1225   -2.1444   54.0213 H       1  <0>         0.0700
     30 H30       -12.9303   -1.5907   56.4175 H       1  <0>         0.0600
     31 H31       -11.2342   -1.0756   56.2558 H       1  <0>         0.0600
     32 H32       -10.0524    0.3048   55.5471 H       1  <0>         0.1400
     33 H33        -8.4189    1.3276   54.0160 H       1  <0>         0.1400
     34 H34        -9.5278    4.0341   49.7110 H       1  <0>         0.0800
     35 H35        -8.3329    5.1976   50.3328 H       1  <0>         0.0900
     36 H36        -7.8004    3.6058   49.7404 H       1  <0>         0.0800
     37 H37       -10.1617    3.7085   53.2983 H       1  <0>         0.0800
     38 H38        -9.8230    5.2520   52.4791 H       1  <0>         0.0900
     39 H39       -10.8620    4.0379   51.6955 H       1  <0>         0.0900
     40 H40        -6.0724    1.2633   51.5758 H       1  <0>         0.0800
     41 H41        -7.2572    2.2001   50.6311 H       1  <0>         0.1300
     42 H42        -4.9521    1.8114   49.5159 H       1  <0>         0.1100
     43 H43        -5.5226    3.5018   49.5741 H       1  <0>         0.0800
     44 H44        -2.7941    3.4230   53.7368 H       1  <0>         0.1100
     45 H45        -2.1911    4.8210   52.7916 H       1  <0>         0.1100
     46 H46        -5.3975    4.3348   53.7394 H       1  <0>         0.1100
     47 H47        -4.8547    2.6456   53.5599 H       1  <0>         0.0800
     48 H48       -11.4533    1.7056   51.0313 H       1  <0>         0.1600
     49 H49       -13.0857    0.6794   52.5610 H       1  <0>         0.1300
@<TRIPOS>BOND
     1     1     2    1
     2     1    27    1
     3     1    28    1
     4     1    29    1
     5     2     3    1
     6     2    30    1
     7     2    31    1
     8     3     4    1
     9     4    26   ar
    10     4     5   ar
    11     5     6   ar
    12     5    32    1
    13     6     7   ar
    14     6    33    1
    15     7     8    1
    16     7    25   ar
    17     8     9    1
    18     9    10    1
    19     9    11    1
    20     9    12    1
    21    10    34    1
    22    10    35    1
    23    10    36    1
    24    11    37    1
    25    11    38    1
    26    11    39    1
    27    12    13    2
    28    12    14   am
    29    14    24    1
    30    14    15    1
    31    15    16    1
    32    15    40    1
    33    15    41    1
    34    16    17    1
    35    16    42    1
    36    16    43    1
    37    17    22    1
    38    17    18   am
    39    18    19    2
    40    18    20    1
    41    20    21    1
    42    21    22    1
    43    21    44    1
    44    21    45    1
    45    22    23    1
    46    22    24    1
    47    24    46    1
    48    24    47    1
    49    25    26   ar
    50    25    48    1
    51    26    49    1
@<TRIPOS>SUBSTRUCTURE
     1 <0>         1 TEMP              0 ****  ****    0 ROOT


##########                                Name:    ZINC000422507946
##########                DOCK_Rotatable_Bonds:                   7
##########                         Heavy_Atoms:                  25
##########                    Molecular_Weight:             364.484
##########                DOCK_Rotatable_Bonds:                   7
##########                       Formal_Charge:          0.00999952
##########                     HBond_Acceptors:                   6
##########                        HBond_Donors:                   1
##########                         Heavy_Atoms:                  25
##########                          Grid_Score:          -25.118263
##########                     Grid_vdw_energy:          -24.836683
##########                      Grid_es_energy:           -0.281581
##########           Internal_energy_repulsive:           23.676062

@<TRIPOS>MOLECULE
ZINC000422507946
 50 52 1 0 0
SMALL
USER_CHARGES


@<TRIPOS>ATOM
      1 C1        -16.2147   -2.7923   55.2806 C.3     1  ZINC000422507946   -0.1400
      2 C2        -15.1715   -3.3339   56.2599 C.3     1  ZINC000422507946   -0.0400
      3 H3        -15.5248   -4.2579   56.7177 H       1  ZINC000422507946    0.1100
      4 C4        -14.8555   -2.2831   57.3445 C.3     1  ZINC000422507946   -0.1400
      5 C5        -13.3775   -2.4148   57.7511 C.3     1  ZINC000422507946    0.1400
      6 H6        -13.2317   -3.3226   58.3364 H       1  ZINC000422507946    0.1100
      7 N7        -12.9671   -1.2450   58.5318 N.am    1  ZINC000422507946   -0.6900
      8 C8        -12.0204   -1.3680   59.4831 C.2     1  ZINC000422507946    0.5100
      9 O9        -11.5068   -2.4474   59.6920 O.2     1  ZINC000422507946   -0.5000
     10 C10       -11.6031   -0.1751   60.2807 C.2     1  ZINC000422507946    0.5100
     11 O11       -12.1397    0.0626   61.3428 O.2     1  ZINC000422507946   -0.5200
     12 N12       -10.6306    0.6367   59.8203 N.am    1  ZINC000422507946   -0.5700
     13 C13       -10.2215    1.8061   60.6022 C.3     1  ZINC000422507946    0.1400
     14 C14        -9.6912    1.3561   61.9391 C.ar    1  ZINC000422507946   -0.0800
     15 C15        -8.9972    0.1651   62.0417 C.ar    1  ZINC000422507946   -0.1100
     16 C16        -8.5100   -0.2491   63.2675 C.ar    1  ZINC000422507946   -0.0900
     17 C17        -8.7163    0.5275   64.3917 C.ar    1  ZINC000422507946   -0.1500
     18 C18        -9.4110    1.7211   64.2901 C.ar    1  ZINC000422507946    0.1000
     19 F19        -9.6134    2.4810   65.3885 F       1  ZINC000422507946   -0.1400
     20 C20        -9.8938    2.1373   63.0612 C.ar    1  ZINC000422507946   -0.1500
     21 C21        -9.9827    0.3496   58.5382 C.3     1  ZINC000422507946    0.1400
     22 C22       -10.4996    1.3199   57.4560 C.3     1  ZINC000422507946   -0.1200
     23 C23        -9.4448    2.4537   57.4272 C.3     1  ZINC000422507946   -0.1300
     24 C24        -8.1142    1.6878   57.6318 C.3     1  ZINC000422507946   -0.1200
     25 C25        -8.4660    0.5836   58.6499 C.3     1  ZINC000422507946   -0.1600
     26 C26       -12.5539   -2.4925   56.4386 C.3     1  ZINC000422507946   -0.0900
     27 S27       -13.5775   -3.6144   55.4039 S.3     1  ZINC000422507946   -0.2700
     28 H28       -16.4054   -3.5346   54.5054 H       1  ZINC000422507946    0.0700
     29 H29       -17.1402   -2.5803   55.8159 H       1  ZINC000422507946    0.0700
     30 H30       -15.8419   -1.8761   54.8225 H       1  ZINC000422507946    0.0700
     31 H31       -15.0387   -1.2837   56.9499 H       1  ZINC000422507946    0.0900
     32 H32       -15.4905   -2.4524   58.2140 H       1  ZINC000422507946    0.0900
     33 H33       -13.3768   -0.3819   58.3639 H       1  ZINC000422507946    0.4100
     34 H34        -9.4422    2.3474   60.0657 H       1  ZINC000422507946    0.1100
     35 H35       -11.0801    2.4605   60.7535 H       1  ZINC000422507946    0.1000
     36 H36        -8.8358   -0.4426   61.1635 H       1  ZINC000422507946    0.1400
     37 H37        -7.9682   -1.1799   63.3464 H       1  ZINC000422507946    0.1300
     38 H38        -8.3362    0.2034   65.3492 H       1  ZINC000422507946    0.1400
     39 H39       -10.4355    3.0682   62.9807 H       1  ZINC000422507946    0.1400
     40 H40       -10.1808   -0.6806   58.2424 H       1  ZINC000422507946    0.1100
     41 H41       -10.5496    0.8206   56.4884 H       1  ZINC000422507946    0.0800
     42 H42       -11.4769    1.7151   57.7333 H       1  ZINC000422507946    0.0600
     43 H43        -9.4525    2.9641   56.4641 H       1  ZINC000422507946    0.0700
     44 H44        -9.6136    3.1591   58.2408 H       1  ZINC000422507946    0.0600
     45 H45        -7.7788    1.2479   56.6926 H       1  ZINC000422507946    0.0700
     46 H46        -7.3505    2.3515   58.0374 H       1  ZINC000422507946    0.0700
     47 H47        -8.2120    0.9106   59.6582 H       1  ZINC000422507946    0.0900
     48 H48        -7.9280   -0.3328   58.4077 H       1  ZINC000422507946    0.0800
     49 H49       -12.4662   -1.5092   55.9767 H       1  ZINC000422507946    0.1000
     50 H50       -11.5704   -2.9252   56.6227 H       1  ZINC000422507946    0.1100
@<TRIPOS>BOND
     1     1     2    1
     2     1    28    1
     3     1    29    1
     4     1    30    1
     5     2     3    1
     6     2    27    1
     7     2     4    1
     8     4     5    1
     9     4    31    1
    10     4    32    1
    11     5     6    1
    12     5     7    1
    13     5    26    1
    14     7     8   am
    15     7    33    1
    16     8     9    2
    17     8    10    1
    18    10    11    2
    19    10    12   am
    20    12    13    1
    21    12    21    1
    22    13    14    1
    23    13    34    1
    24    13    35    1
    25    14    20   ar
    26    14    15   ar
    27    15    16   ar
    28    15    36    1
    29    16    17   ar
    30    16    37    1
    31    17    18   ar
    32    17    38    1
    33    18    19    1
    34    18    20   ar
    35    20    39    1
    36    21    25    1
    37    21    22    1
    38    21    40    1
    39    22    23    1
    40    22    41    1
    41    22    42    1
    42    23    24    1
    43    23    43    1
    44    23    44    1
    45    24    25    1
    46    24    45    1
    47    24    46    1
    48    25    47    1
    49    25    48    1
    50    26    27    1
    51    26    49    1
    52    26    50    1
@<TRIPOS>SUBSTRUCTURE
     1 ZINC000422507946        1 TEMP              0 ****  ****    0 ROOT


##########                                Name:    ZINC000277311370
##########                DOCK_Rotatable_Bonds:                   5
##########                         Heavy_Atoms:                  17
##########                    Molecular_Weight:             361.036
##########                DOCK_Rotatable_Bonds:                   5
##########                       Formal_Charge:        -7.45058e-08
##########                     HBond_Acceptors:                   4
##########                        HBond_Donors:                   1
##########                         Heavy_Atoms:                  17
##########                          Grid_Score:          -25.094341
##########                     Grid_vdw_energy:          -24.497171
##########                      Grid_es_energy:           -0.597170
##########           Internal_energy_repulsive:           12.714887

@<TRIPOS>MOLECULE
ZINC000277311370
 28 28 1 0 0
SMALL
USER_CHARGES


@<TRIPOS>ATOM
      1 C1         -7.6466    3.1135   53.0275 C.3     1  ZINC000277311370   -0.1500
      2 C2         -8.0177    2.5750   51.6442 C.3     1  ZINC000277311370   -0.1000
      3 C3         -8.1183    3.7375   50.6546 C.3     1  ZINC000277311370   -0.1600
      4 C4         -6.9411    1.5955   51.1727 C.3     1  ZINC000277311370    0.2500
      5 H5         -6.9661    1.5239   50.0854 H       1  ZINC000277311370    0.1400
      6 C6         -7.1946    0.2688   51.7578 C.1     1  ZINC000277311370    0.1900
      7 N7         -7.3902   -0.7551   52.2093 N.1     1  ZINC000277311370   -0.4100
      8 N8         -5.6242    2.0744   51.6004 N.am    1  ZINC000277311370   -0.7000
      9 C9         -4.7992    2.6616   50.7110 C.2     1  ZINC000277311370    0.5700
     10 O10        -5.1484    2.7953   49.5546 O.2     1  ZINC000277311370   -0.4900
     11 C11        -3.4673    3.1441   51.1428 C.ar    1  ZINC000277311370    0.1100
     12 N12        -2.4101    2.3493   51.0278 N.ar    1  ZINC000277311370   -0.4300
     13 C13        -1.2097    2.7396   51.3990 C.ar    1  ZINC000277311370    0.1300
     14 Br14        0.2550    1.5587   51.2087 Br      1  ZINC000277311370    0.0200
     15 C15        -1.0037    4.0053   51.9279 C.ar    1  ZINC000277311370   -0.1100
     16 C16        -2.0794    4.8672   52.0656 C.ar    1  ZINC000277311370   -0.0400
     17 C17        -3.3330    4.4310   51.6614 C.ar    1  ZINC000277311370   -0.0900
     18 Br18       -4.8402    5.5614   51.8241 Br      1  ZINC000277311370    0.0300
     19 H19        -8.4135    3.8114   53.3635 H       1  ZINC000277311370    0.0700
     20 H20        -7.5749    2.2853   53.7325 H       1  ZINC000277311370    0.0700
     21 H21        -6.6870    3.6273   52.9719 H       1  ZINC000277311370    0.0600
     22 H22        -8.9774    2.0612   51.6998 H       1  ZINC000277311370    0.1000
     23 H23        -7.1586    4.2514   50.5991 H       1  ZINC000277311370    0.0600
     24 H24        -8.3825    3.3540   49.6692 H       1  ZINC000277311370    0.0600
     25 H25        -8.8852    4.4354   50.9906 H       1  ZINC000277311370    0.0700
     26 H26        -5.3461    1.9688   52.5236 H       1  ZINC000277311370    0.4200
     27 H27        -0.0143    4.3157   52.2296 H       1  ZINC000277311370    0.1600
     28 H28        -1.9446    5.8577   52.4745 H       1  ZINC000277311370    0.1700
@<TRIPOS>BOND
     1     1     2    1
     2     1    19    1
     3     1    20    1
     4     1    21    1
     5     2     3    1
     6     2     4    1
     7     2    22    1
     8     3    23    1
     9     3    24    1
    10     3    25    1
    11     4     5    1
    12     4     6    1
    13     4     8    1
    14     6     7    3
    15     8     9   am
    16     8    26    1
    17     9    10    2
    18     9    11    1
    19    11    17   ar
    20    11    12   ar
    21    12    13   ar
    22    13    14    1
    23    13    15   ar
    24    15    16   ar
    25    15    27    1
    26    16    17   ar
    27    16    28    1
    28    17    18    1
@<TRIPOS>SUBSTRUCTURE
     1 ZINC000277311370        1 TEMP              0 ****  ****    0 ROOT


##########                                Name:    ZINC000279974681
##########                DOCK_Rotatable_Bonds:                   4
##########                         Heavy_Atoms:                  23
##########                    Molecular_Weight:              338.79
##########                DOCK_Rotatable_Bonds:                   4
##########                       Formal_Charge:           0.0100008
##########                     HBond_Acceptors:                   7
##########                        HBond_Donors:                   1
##########                         Heavy_Atoms:                  23
##########                          Grid_Score:          -25.043919
##########                     Grid_vdw_energy:          -25.154865
##########                      Grid_es_energy:            0.110947
##########           Internal_energy_repulsive:            7.505630

@<TRIPOS>MOLECULE
ZINC000279974681
 42 45 1 0 0
SMALL
USER_CHARGES


@<TRIPOS>ATOM
      1 C1         -4.4522    3.8691   55.9470 C.3     1  ZINC000279974681   -0.1400
      2 C2         -3.9462    3.2949   54.6222 C.3     1  ZINC000279974681    0.0700
      3 H3         -3.6081    2.2700   54.7751 H       1  ZINC000279974681    0.0600
      4 C4         -2.7808    4.1471   54.1067 C.3     1  ZINC000279974681    0.1000
      5 N5         -2.4371    3.6912   52.7504 N.am    1  ZINC000279974681   -0.6300
      6 C6         -1.1641    3.3969   52.4192 C.2     1  ZINC000279974681    0.7100
      7 O7         -0.2798    3.5065   53.2466 O.2     1  ZINC000279974681   -0.5600
      8 N8         -0.8715    2.9811   51.1710 N.am    1  ZINC000279974681   -0.6700
      9 C9          0.4526    2.6750   50.8266 C.ar    1  ZINC000279974681    0.2000
     10 C10         0.9933    1.4450   51.1734 C.ar    1  ZINC000279974681   -0.1200
     11 C11         2.3014    1.1429   50.8325 C.ar    1  ZINC000279974681    0.0700
     12 C12         3.0721    2.0747   50.1419 C.ar    1  ZINC000279974681    0.0200
     13 C13         2.5293    3.3022   49.7977 C.ar    1  ZINC000279974681   -0.0700
     14 C14         1.2217    3.6010   50.1330 C.ar    1  ZINC000279974681   -0.0700
     15 Cl15        0.5452    5.1400   49.7002 Cl      1  ZINC000279974681   -0.0500
     16 O16         4.3117    1.5422   49.9276 O.3     1  ZINC000279974681   -0.3000
     17 C17         4.4215    0.4410   50.8488 C.3     1  ZINC000279974681    0.2100
     18 O18         3.0573    0.0270   51.0508 O.3     1  ZINC000279974681   -0.3000
     19 C19        -3.5240    3.5657   51.7666 C.3     1  ZINC000279974681    0.0800
     20 C20        -4.6532    2.7420   52.3962 C.3     1  ZINC000279974681    0.1100
     21 H21        -4.3179    1.7148   52.5401 H       1  ZINC000279974681    0.0700
     22 C22        -5.8728    2.7567   51.4724 C.3     1  ZINC000279974681   -0.1600
     23 C23        -5.6631    2.3277   50.0187 C.3     1  ZINC000279974681   -0.1700
     24 C24        -6.4084    1.4078   50.9880 C.3     1  ZINC000279974681   -0.1600
     25 O25        -5.0036    3.3104   53.6602 O.3     1  ZINC000279974681   -0.3600
     26 H26        -5.2820    3.2638   56.3121 H       1  ZINC000279974681    0.0700
     27 H27        -3.6451    3.8587   56.6795 H       1  ZINC000279974681    0.0800
     28 H28        -4.7901    4.8940   55.7933 H       1  ZINC000279974681    0.0700
     29 H29        -3.0775    5.1955   54.0773 H       1  ZINC000279974681    0.0800
     30 H30        -1.9195    4.0269   54.7637 H       1  ZINC000279974681    0.1100
     31 H31        -1.5770    2.8937   50.5111 H       1  ZINC000279974681    0.4100
     32 H32         0.3943    0.7236   51.7093 H       1  ZINC000279974681    0.1800
     33 H33         3.1272    4.0250   49.2624 H       1  ZINC000279974681    0.1500
     34 H34         5.0064   -0.3677   50.4108 H       1  ZINC000279974681    0.1400
     35 H35         4.8649    0.7706   51.7885 H       1  ZINC000279974681    0.0900
     36 H36        -3.8955    4.5556   51.5016 H       1  ZINC000279974681    0.0900
     37 H37        -3.1548    3.0607   50.8740 H       1  ZINC000279974681    0.0900
     38 H38        -6.5987    3.5467   51.6646 H       1  ZINC000279974681    0.1100
     39 H39        -6.2512    2.8356   49.2543 H       1  ZINC000279974681    0.1000
     40 H40        -4.6565    2.0349   49.7206 H       1  ZINC000279974681    0.1000
     41 H41        -5.8919    0.5099   51.3275 H       1  ZINC000279974681    0.1000
     42 H42        -7.4866    1.3106   50.8612 H       1  ZINC000279974681    0.1000
@<TRIPOS>BOND
     1     1     2    1
     2     1    26    1
     3     1    27    1
     4     1    28    1
     5     2     3    1
     6     2    25    1
     7     2     4    1
     8     4     5    1
     9     4    29    1
    10     4    30    1
    11     5     6   am
    12     5    19    1
    13     6     7    2
    14     6     8   am
    15     8     9    1
    16     8    31    1
    17     9    14   ar
    18     9    10   ar
    19    10    11   ar
    20    10    32    1
    21    11    18    1
    22    11    12   ar
    23    12    13   ar
    24    12    16    1
    25    13    14   ar
    26    13    33    1
    27    14    15    1
    28    16    17    1
    29    17    18    1
    30    17    34    1
    31    17    35    1
    32    19    20    1
    33    19    36    1
    34    19    37    1
    35    20    21    1
    36    20    22    1
    37    20    25    1
    38    22    24    1
    39    22    23    1
    40    22    38    1
    41    23    24    1
    42    23    39    1
    43    23    40    1
    44    24    41    1
    45    24    42    1
@<TRIPOS>SUBSTRUCTURE
     1 ZINC000279974681        1 TEMP              0 ****  ****    0 ROOT


##########                                Name:    ZINC000098105561
##########                DOCK_Rotatable_Bonds:                   5
##########                         Heavy_Atoms:                  25
##########                    Molecular_Weight:             368.336
##########                DOCK_Rotatable_Bonds:                   5
##########                       Formal_Charge:         2.98023e-08
##########                     HBond_Acceptors:                   9
##########                        HBond_Donors:                   0
##########                         Heavy_Atoms:                  25
##########                          Grid_Score:          -24.961643
##########                     Grid_vdw_energy:          -24.254581
##########                      Grid_es_energy:           -0.707063
##########           Internal_energy_repulsive:           11.856732

@<TRIPOS>MOLECULE
ZINC000098105561
 36 38 1 0 0
SMALL
USER_CHARGES


@<TRIPOS>ATOM
      1 C1         -7.6075    4.4013   55.9250 C.3     1  ZINC000098105561   -0.0800
      2 C2         -6.4459    3.9398   55.0833 C.2     1  ZINC000098105561    0.0900
      3 C3         -5.3816    3.3209   55.5996 C.2     1  ZINC000098105561   -0.2700
      4 S4         -4.2696    2.9565   54.2826 S.3     1  ZINC000098105561    0.1600
      5 C5         -5.3448    3.6728   53.1629 C.2     1  ZINC000098105561    0.2500
      6 N6         -5.1225    3.7673   51.7961 N.am    1  ZINC000098105561   -0.5200
      7 C7         -4.0845    4.6648   51.2832 C.3     1  ZINC000098105561    0.0500
      8 C8         -2.8289    3.8557   50.9519 C.3     1  ZINC000098105561    0.4400
      9 F9         -1.7361    4.7204   50.8275 F       1  ZINC000098105561   -0.1700
     10 F10        -2.5820    2.9369   51.9776 F       1  ZINC000098105561   -0.1700
     11 F11        -3.0203    3.1699   49.7476 F       1  ZINC000098105561   -0.1700
     12 C12        -5.8617    3.0333   50.9409 C.2     1  ZINC000098105561    0.5800
     13 O13        -5.6670    3.1160   49.7442 O.2     1  ZINC000098105561   -0.4100
     14 C14        -6.9111    2.1260   51.4594 C.2     1  ZINC000098105561    0.0800
     15 C15        -6.5808    0.8393   51.7312 C.2     1  ZINC000098105561   -0.2000
     16 C16        -7.6348   -0.0598   52.2307 C.2     1  ZINC000098105561    0.4200
     17 O17        -7.3796   -1.1521   52.7065 O.2     1  ZINC000098105561   -0.4300
     18 C18        -9.0196    0.4416   52.1207 C.ar    1  ZINC000098105561   -0.2200
     19 C19       -10.1152   -0.3968   52.3146 C.ar    1  ZINC000098105561   -0.0300
     20 C20       -11.3896    0.1137   52.1960 C.ar    1  ZINC000098105561   -0.1400
     21 C21       -11.5796    1.4526   51.8848 C.ar    1  ZINC000098105561   -0.0500
     22 C22       -10.5037    2.2922   51.6929 C.ar    1  ZINC000098105561   -0.1400
     23 C23        -9.2080    1.8002   51.8113 C.ar    1  ZINC000098105561    0.1400
     24 O24        -8.1457    2.6127   51.6454 O.3     1  ZINC000098105561   -0.2300
     25 N25        -6.4007    4.1099   53.7757 N.2     1  ZINC000098105561   -0.4600
     26 H26        -8.3464    3.6028   55.9935 H       1  ZINC000098105561    0.0800
     27 H27        -7.2539    4.6556   56.9242 H       1  ZINC000098105561    0.0800
     28 H28        -8.0627    5.2790   55.4663 H       1  ZINC000098105561    0.0800
     29 H29        -5.2288    3.0853   56.6424 H       1  ZINC000098105561    0.1900
     30 H30        -4.4456    5.1604   50.3820 H       1  ZINC000098105561    0.1700
     31 H31        -3.8456    5.4134   52.0385 H       1  ZINC000098105561    0.1400
     32 H32        -5.5718    0.4832   51.5850 H       1  ZINC000098105561    0.1800
     33 H33        -9.9669   -1.4390   52.5557 H       1  ZINC000098105561    0.1400
     34 H34       -12.2435   -0.5305   52.3453 H       1  ZINC000098105561    0.1400
     35 H35       -12.5828    1.8414   51.7914 H       1  ZINC000098105561    0.1400
     36 H36       -10.6665    3.3321   51.4511 H       1  ZINC000098105561    0.1400
@<TRIPOS>BOND
     1     1     2    1
     2     1    26    1
     3     1    27    1
     4     1    28    1
     5     2    25    1
     6     2     3    2
     7     3     4    1
     8     3    29    1
     9     4     5    1
    10     5     6    1
    11     5    25    2
    12     6     7    1
    13     6    12   am
    14     7     8    1
    15     7    30    1
    16     7    31    1
    17     8     9    1
    18     8    10    1
    19     8    11    1
    20    12    13    2
    21    12    14    1
    22    14    24    1
    23    14    15    2
    24    15    16    1
    25    15    32    1
    26    16    17    2
    27    16    18    1
    28    18    23   ar
    29    18    19   ar
    30    19    20   ar
    31    19    33    1
    32    20    21   ar
    33    20    34    1
    34    21    22   ar
    35    21    35    1
    36    22    23   ar
    37    22    36    1
    38    23    24    1
@<TRIPOS>SUBSTRUCTURE
     1 ZINC000098105561        1 TEMP              0 ****  ****    0 ROOT


##########                                Name:    ZINC001122903793
##########                DOCK_Rotatable_Bonds:                   4
##########                         Heavy_Atoms:                  25
##########                    Molecular_Weight:             399.968
##########                DOCK_Rotatable_Bonds:                   4
##########                       Formal_Charge:           0.0100003
##########                     HBond_Acceptors:                   9
##########                        HBond_Donors:                   0
##########                         Heavy_Atoms:                  25
##########                          Grid_Score:          -24.824013
##########                     Grid_vdw_energy:          -23.895662
##########                      Grid_es_energy:           -0.928349
##########           Internal_energy_repulsive:           12.352754

@<TRIPOS>MOLECULE
ZINC001122903793
 47 50 1 0 0
SMALL
USER_CHARGES


@<TRIPOS>ATOM
      1 C1        -14.2999   -4.4097   56.2248 C.3     1  ZINC001122903793   -0.1400
      2 C2        -13.9067   -3.5083   57.3970 C.3     1  ZINC001122903793   -0.0400
      3 H3        -13.0517   -3.9384   57.9188 H       1  ZINC001122903793    0.1000
      4 S4        -15.3086   -3.3528   58.5454 S.3     1  ZINC001122903793   -0.2500
      5 C5        -14.7255   -2.0524   59.6758 C.3     1  ZINC001122903793   -0.0800
      6 C6        -14.2541   -0.8573   58.8405 C.3     1  ZINC001122903793    0.0700
      7 N7        -13.1316   -1.2572   57.9889 N.3     1  ZINC001122903793   -0.4800
      8 C8        -12.4364   -0.1498   57.5312 C.2     1  ZINC001122903793    0.3700
      9 N9        -12.9290    0.8405   56.8244 N.2     1  ZINC001122903793   -0.2900
     10 N10       -12.0106    1.7025   56.5698 N.2     1  ZINC001122903793   -0.2400
     11 C11       -10.8719    1.3142   57.1000 C.2     1  ZINC001122903793    0.2600
     12 C12        -9.5855    2.0266   57.0305 C.2     1  ZINC001122903793   -0.1600
     13 C13        -8.7716    2.1009   55.9508 C.2     1  ZINC001122903793    0.1600
     14 Cl14       -9.1411    1.3375   54.4361 Cl      1  ZINC001122903793    0.0300
     15 N15        -7.6773    2.8012   56.1496 N.2     1  ZINC001122903793   -0.4600
     16 C16        -7.5116    3.3222   57.3199 C.2     1  ZINC001122903793    0.0300
     17 S17        -8.8334    2.9416   58.3350 S.3     1  ZINC001122903793    0.2200
     18 N18       -11.1120    0.1172   57.7366 N.pl3   1  ZINC001122903793   -0.4600
     19 C19       -10.1473   -0.7027   58.4740 C.3     1  ZINC001122903793    0.1100
     20 C20       -10.3479   -0.4983   59.9768 C.3     1  ZINC001122903793    0.0700
     21 H21       -11.2498   -1.0113   60.3108 H       1  ZINC001122903793    0.0800
     22 C22        -9.1143   -1.0151   60.7592 C.3     1  ZINC001122903793   -0.1500
     23 C23        -9.2139   -0.1700   62.0584 C.3     1  ZINC001122903793   -0.1500
     24 C24        -9.7855    1.1661   61.5371 C.3     1  ZINC001122903793    0.0500
     25 O25       -10.4289    0.9027   60.2832 O.3     1  ZINC001122903793   -0.3700
     26 C26       -13.5432   -2.1142   56.8748 C.3     1  ZINC001122903793    0.1000
     27 H27       -14.4133   -1.6777   56.3844 H       1  ZINC001122903793    0.0800
     28 C28       -12.3958   -2.2264   55.8689 C.3     1  ZINC001122903793   -0.1500
     29 H29       -13.4605   -4.4956   55.5349 H       1  ZINC001122903793    0.0800
     30 H30       -14.5646   -5.3985   56.5998 H       1  ZINC001122903793    0.0700
     31 H31       -15.1548   -3.9774   55.7050 H       1  ZINC001122903793    0.0700
     32 H32       -15.5407   -1.7433   60.3300 H       1  ZINC001122903793    0.1200
     33 H33       -13.8964   -2.4314   60.2733 H       1  ZINC001122903793    0.0900
     34 H34       -15.0752   -0.5055   58.2158 H       1  ZINC001122903793    0.0700
     35 H35       -13.9363   -0.0539   59.5050 H       1  ZINC001122903793    0.0900
     36 H36        -6.6603    3.9179   57.6142 H       1  ZINC001122903793    0.2100
     37 H37       -10.2995   -1.7533   58.2266 H       1  ZINC001122903793    0.1200
     38 H38        -9.1347   -0.4076   58.1990 H       1  ZINC001122903793    0.1000
     39 H39        -9.2039   -2.0797   60.9752 H       1  ZINC001122903793    0.0900
     40 H40        -8.1905   -0.8016   60.2215 H       1  ZINC001122903793    0.0800
     41 H41        -9.8970   -0.6326   62.7706 H       1  ZINC001122903793    0.0800
     42 H42        -8.2292   -0.0236   62.5024 H       1  ZINC001122903793    0.0900
     43 H43       -10.5118    1.5600   62.2482 H       1  ZINC001122903793    0.0700
     44 H44        -8.9776    1.8839   61.3957 H       1  ZINC001122903793    0.0700
     45 H45       -11.5241   -2.6602   56.3590 H       1  ZINC001122903793    0.0600
     46 H46       -12.7010   -2.8641   55.0393 H       1  ZINC001122903793    0.0800
     47 H47       -12.1448   -1.2350   55.4920 H       1  ZINC001122903793    0.0600
@<TRIPOS>BOND
     1     1     2    1
     2     1    29    1
     3     1    30    1
     4     1    31    1
     5     2     3    1
     6     2    26    1
     7     2     4    1
     8     4     5    1
     9     5     6    1
    10     5    32    1
    11     5    33    1
    12     6     7    1
    13     6    34    1
    14     6    35    1
    15     7     8    1
    16     7    26    1
    17     8    18    1
    18     8     9    2
    19     9    10    1
    20    10    11    2
    21    11    12    1
    22    11    18    1
    23    12    17    1
    24    12    13    2
    25    13    14    1
    26    13    15    1
    27    15    16    2
    28    16    17    1
    29    16    36    1
    30    18    19    1
    31    19    20    1
    32    19    37    1
    33    19    38    1
    34    20    21    1
    35    20    25    1
    36    20    22    1
    37    22    23    1
    38    22    39    1
    39    22    40    1
    40    23    24    1
    41    23    41    1
    42    23    42    1
    43    24    25    1
    44    24    43    1
    45    24    44    1
    46    26    27    1
    47    26    28    1
    48    28    45    1
    49    28    46    1
    50    28    47    1
@<TRIPOS>SUBSTRUCTURE
     1 ZINC001122903793        1 TEMP              0 ****  ****    0 ROOT


##########                                Name:    ZINC000794876634
##########                DOCK_Rotatable_Bonds:                   4
##########                         Heavy_Atoms:                  24
##########                    Molecular_Weight:             389.249
##########                DOCK_Rotatable_Bonds:                   4
##########                       Formal_Charge:        -4.47035e-08
##########                     HBond_Acceptors:                   5
##########                        HBond_Donors:                   0
##########                         Heavy_Atoms:                  24
##########                          Grid_Score:          -24.729885
##########                     Grid_vdw_energy:          -24.901159
##########                      Grid_es_energy:            0.171274
##########           Internal_energy_repulsive:           52.343346

@<TRIPOS>MOLECULE
ZINC000794876634
 41 43 1 0 0
SMALL
USER_CHARGES


@<TRIPOS>ATOM
      1 C1         -9.5814    3.3196   64.5204 C.3     1  ZINC000794876634    0.0200
      2 O2         -9.1684    1.9654   64.3262 O.3     1  ZINC000794876634   -0.3000
      3 C3         -9.4903    1.3868   63.1405 C.ar    1  ZINC000794876634    0.1300
      4 C4        -10.0905    2.1426   62.1420 C.ar    1  ZINC000794876634   -0.1800
      5 C5        -10.4200    1.5620   60.9374 C.ar    1  ZINC000794876634   -0.0400
      6 C6        -11.0712    2.3858   59.8565 C.3     1  ZINC000794876634   -0.1200
      7 C7        -10.1489    0.2050   60.7173 C.ar    1  ZINC000794876634   -0.1000
      8 C8        -10.4978   -0.4161   59.4364 C.2     1  ZINC000794876634    0.0600
      9 C9        -11.6621   -1.1177   59.3129 C.2     1  ZINC000794876634   -0.1700
     10 C10       -12.6821   -1.3543   60.3490 C.2     1  ZINC000794876634    0.5700
     11 O11       -12.6428   -0.9521   61.4974 O.2     1  ZINC000794876634   -0.4900
     12 N12       -13.6635   -2.0918   59.8031 N.am    1  ZINC000794876634   -0.5300
     13 C13       -14.8608   -2.5325   60.5234 C.3     1  ZINC000794876634    0.0800
     14 C14       -13.4027   -2.3832   58.4731 C.ar    1  ZINC000794876634    0.3700
     15 N15       -14.0929   -3.0725   57.5729 N.ar    1  ZINC000794876634   -0.4900
     16 C16       -13.6606   -3.2349   56.3389 C.ar    1  ZINC000794876634    0.1800
     17 C17       -12.4599   -2.6932   55.9156 C.ar    1  ZINC000794876634   -0.1800
     18 Br18      -11.8692   -2.9450   54.1370 Br      1  ZINC000794876634   -0.0200
     19 C19       -11.6952   -1.9624   56.8134 C.ar    1  ZINC000794876634    0.0000
     20 C20       -12.1793   -1.8019   58.1074 C.ar    1  ZINC000794876634   -0.1400
     21 C21        -9.5425   -0.5564   61.7264 C.ar    1  ZINC000794876634   -0.1400
     22 C22        -9.2117    0.0362   62.9277 C.ar    1  ZINC000794876634    0.0900
     23 O23        -8.6230   -0.6991   63.9086 O.3     1  ZINC000794876634   -0.3000
     24 C24        -8.4387   -0.0626   65.1747 C.3     1  ZINC000794876634    0.0200
     25 H25        -9.2616    3.6592   65.5055 H       1  ZINC000794876634    0.1000
     26 H26        -9.1301    3.9504   63.7544 H       1  ZINC000794876634    0.0600
     27 H27       -10.6673    3.3821   64.4492 H       1  ZINC000794876634    0.0600
     28 H28       -10.2998    3.1886   62.3107 H       1  ZINC000794876634    0.1400
     29 H29       -10.3018    2.8293   59.2245 H       1  ZINC000794876634    0.0800
     30 H30       -11.7151    1.7475   59.2515 H       1  ZINC000794876634    0.0700
     31 H31       -11.6676    3.1764   60.3118 H       1  ZINC000794876634    0.0700
     32 H32        -9.8337   -0.3188   58.5904 H       1  ZINC000794876634    0.1500
     33 H33       -14.8206   -2.1701   61.5506 H       1  ZINC000794876634    0.0900
     34 H34       -15.7480   -2.1335   60.0317 H       1  ZINC000794876634    0.0800
     35 H35       -14.9043   -3.6216   60.5236 H       1  ZINC000794876634    0.0800
     36 H36       -14.2572   -3.8044   55.6416 H       1  ZINC000794876634    0.1800
     37 H37       -10.7531   -1.5269   56.5148 H       1  ZINC000794876634    0.1600
     38 H38        -9.3314   -1.6028   61.5623 H       1  ZINC000794876634    0.1400
     39 H39        -7.7417    0.7682   65.0656 H       1  ZINC000794876634    0.0500
     40 H40        -9.3965    0.3116   65.5360 H       1  ZINC000794876634    0.0600
     41 H41        -8.0375   -0.7823   65.8883 H       1  ZINC000794876634    0.1100
@<TRIPOS>BOND
     1     1     2    1
     2     1    25    1
     3     1    26    1
     4     1    27    1
     5     2     3    1
     6     3    22   ar
     7     3     4   ar
     8     4     5   ar
     9     4    28    1
    10     5     6    1
    11     5     7   ar
    12     6    29    1
    13     6    30    1
    14     6    31    1
    15     7     8    1
    16     7    21   ar
    17     8     9    2
    18     8    32    1
    19     9    20    1
    20     9    10    1
    21    10    11    2
    22    10    12   am
    23    12    13    1
    24    12    14    1
    25    13    33    1
    26    13    34    1
    27    13    35    1
    28    14    20   ar
    29    14    15   ar
    30    15    16   ar
    31    16    17   ar
    32    16    36    1
    33    17    18    1
    34    17    19   ar
    35    19    20   ar
    36    19    37    1
    37    21    22   ar
    38    21    38    1
    39    22    23    1
    40    23    24    1
    41    24    39    1
    42    24    40    1
    43    24    41    1
@<TRIPOS>SUBSTRUCTURE
     1 ZINC000794876634        1 TEMP              0 ****  ****    0 ROOT


##########                                Name:    ZINC000444205493
##########                DOCK_Rotatable_Bonds:                   4
##########                         Heavy_Atoms:                  24
##########                    Molecular_Weight:             415.351
##########                DOCK_Rotatable_Bonds:                   4
##########                       Formal_Charge:         -0.00999995
##########                     HBond_Acceptors:                   6
##########                        HBond_Donors:                   1
##########                         Heavy_Atoms:                  24
##########                          Grid_Score:          -24.728352
##########                     Grid_vdw_energy:          -24.411798
##########                      Grid_es_energy:           -0.316553
##########           Internal_energy_repulsive:          156.004013

@<TRIPOS>MOLECULE
ZINC000444205493
 47 49 1 0 0
SMALL
USER_CHARGES


@<TRIPOS>ATOM
      1 C1        -14.5444    0.2648   49.8904 C.3     1  ZINC000444205493   -0.1700
      2 C2        -14.4503   -0.3625   51.2574 C.2     1  ZINC000444205493    0.5100
      3 O3        -15.4605   -0.6613   51.8584 O.2     1  ZINC000444205493   -0.5100
      4 N4        -13.2435   -0.5914   51.8121 N.am    1  ZINC000444205493   -0.6800
      5 C5        -13.1560   -1.1740   53.0817 C.ar    1  ZINC000444205493    0.2300
      6 C6        -14.3108   -1.5336   53.7631 C.ar    1  ZINC000444205493   -0.1400
      7 C7        -14.2212   -2.1090   55.0159 C.ar    1  ZINC000444205493    0.0200
      8 C8        -12.9833   -2.3265   55.5919 C.ar    1  ZINC000444205493   -0.6900
      9 S9        -12.8740   -3.0600   57.1901 S.o2    1  ZINC000444205493    2.7100
     10 O10       -14.1786   -3.5246   57.5085 O.2     1  ZINC000444205493   -0.9500
     11 O11       -11.7320   -3.9055   57.1664 O.2     1  ZINC000444205493   -0.9500
     12 N12       -12.5348   -1.8463   58.2645 N.am    1  ZINC000444205493   -1.0100
     13 C13       -13.3753   -0.6603   58.5161 C.3     1  ZINC000444205493    0.1200
     14 C14       -12.9952   -0.1965   59.9464 C.3     1  ZINC000444205493   -0.1200
     15 C15       -11.4855   -0.5041   59.9774 C.3     1  ZINC000444205493   -0.0700
     16 C16       -10.6795    0.6571   59.3861 C.3     1  ZINC000444205493   -0.1100
     17 C17       -10.1880    1.4420   60.6307 C.3     1  ZINC000444205493   -0.1200
     18 C18        -9.8846    0.3162   61.6518 C.3     1  ZINC000444205493   -0.1000
     19 H19        -8.9045   -0.1200   61.4585 H       1  ZINC000444205493    0.0700
     20 C20        -9.9563    0.8564   63.0813 C.3     1  ZINC000444205493   -0.1500
     21 C21       -10.9984   -0.7274   61.4086 C.3     1  ZINC000444205493   -0.1100
     22 C22       -11.3469   -1.7748   59.1324 C.3     1  ZINC000444205493    0.1300
     23 C23       -11.8305   -1.9700   54.9161 C.ar    1  ZINC000444205493    0.0300
     24 C24       -11.9128   -1.3991   53.6606 C.ar    1  ZINC000444205493   -0.1500
     25 Br25      -10.3362   -0.9118   52.7370 Br      1  ZINC000444205493   -0.0300
     26 H26       -15.5925    0.3705   49.6106 H       1  ZINC000444205493    0.1000
     27 H27       -14.0721    1.2470   49.9080 H       1  ZINC000444205493    0.1000
     28 H28       -14.0366   -0.3696   49.1639 H       1  ZINC000444205493    0.1000
     29 H29       -12.4355   -0.3524   51.3315 H       1  ZINC000444205493    0.4200
     30 H30       -15.2783   -1.3635   53.3144 H       1  ZINC000444205493    0.1600
     31 H31       -15.1195   -2.3889   55.5463 H       1  ZINC000444205493    0.1500
     32 H32       -13.1518    0.1231   57.7917 H       1  ZINC000444205493    0.0800
     33 H33       -14.4310   -0.9279   58.4724 H       1  ZINC000444205493    0.0800
     34 H34       -13.1795    0.8703   60.0736 H       1  ZINC000444205493    0.0900
     35 H35       -13.5279   -0.7764   60.7001 H       1  ZINC000444205493    0.0800
     36 H36        -9.8327    0.2815   58.8118 H       1  ZINC000444205493    0.0700
     37 H37       -11.3158    1.2864   58.7638 H       1  ZINC000444205493    0.0700
     38 H38        -9.2848    2.0064   60.3989 H       1  ZINC000444205493    0.0700
     39 H39       -10.9710    2.1015   61.0049 H       1  ZINC000444205493    0.0700
     40 H40       -10.9476    1.2712   63.2637 H       1  ZINC000444205493    0.0500
     41 H41        -9.7660    0.0467   63.7858 H       1  ZINC000444205493    0.0500
     42 H42        -9.2062    1.6363   63.2131 H       1  ZINC000444205493    0.0500
     43 H43       -11.8169   -0.5728   62.1116 H       1  ZINC000444205493    0.0700
     44 H44       -10.5974   -1.7353   61.5150 H       1  ZINC000444205493    0.0700
     45 H45       -11.3002   -2.6495   59.7810 H       1  ZINC000444205493    0.0700
     46 H46       -10.4476   -1.7175   58.5191 H       1  ZINC000444205493    0.0800
     47 H47       -10.8650   -2.1416   55.3685 H       1  ZINC000444205493    0.1500
@<TRIPOS>BOND
     1     1     2    1
     2     1    26    1
     3     1    27    1
     4     1    28    1
     5     2     3    2
     6     2     4   am
     7     4     5    1
     8     4    29    1
     9     5    24   ar
    10     5     6   ar
    11     6     7   ar
    12     6    30    1
    13     7     8   ar
    14     7    31    1
    15     8     9    1
    16     8    23   ar
    17     9    10    2
    18     9    11    2
    19     9    12   am
    20    12    22    1
    21    12    13    1
    22    13    14    1
    23    13    32    1
    24    13    33    1
    25    14    15    1
    26    14    34    1
    27    14    35    1
    28    15    21    1
    29    15    16    1
    30    15    22    1
    31    16    17    1
    32    16    36    1
    33    16    37    1
    34    17    18    1
    35    17    38    1
    36    17    39    1
    37    18    19    1
    38    18    20    1
    39    18    21    1
    40    20    40    1
    41    20    41    1
    42    20    42    1
    43    21    43    1
    44    21    44    1
    45    22    45    1
    46    22    46    1
    47    23    24   ar
    48    23    47    1
    49    24    25    1
@<TRIPOS>SUBSTRUCTURE
     1 ZINC000444205493        1 TEMP              0 ****  ****    0 ROOT


##########                                Name:    ZINC000011498449
##########                DOCK_Rotatable_Bonds:                   5
##########                         Heavy_Atoms:                  21
##########                    Molecular_Weight:             331.198
##########                DOCK_Rotatable_Bonds:                   5
##########                       Formal_Charge:         1.30385e-07
##########                     HBond_Acceptors:                   7
##########                        HBond_Donors:                   1
##########                         Heavy_Atoms:                  21
##########                          Grid_Score:          -24.705748
##########                     Grid_vdw_energy:          -24.119715
##########                      Grid_es_energy:           -0.586033
##########           Internal_energy_repulsive:           12.154705

@<TRIPOS>MOLECULE
ZINC000011498449
 37 38 1 0 0
SMALL
USER_CHARGES


@<TRIPOS>ATOM
      1 C1          3.2975    3.9380   53.2757 C.3     1  ZINC000011498449   -0.1500
      2 C2          3.5667    2.9140   52.1711 C.3     1  ZINC000011498449    0.0700
      3 H3          4.4851    3.1774   51.6465 H       1  ZINC000011498449    0.0600
      4 C4          2.3956    2.9085   51.1818 C.3     1  ZINC000011498449    0.0800
      5 N5          2.5878    1.7930   50.2415 N.am    1  ZINC000011498449   -0.6100
      6 C6          2.5134    1.9874   48.9100 C.2     1  ZINC000011498449    0.5100
      7 O7          2.2866    3.0948   48.4706 O.2     1  ZINC000011498449   -0.5300
      8 C8          2.7121    0.8287   47.9671 C.3     1  ZINC000011498449    0.1000
      9 N9          1.9262    1.0489   46.7505 N.am    1  ZINC000011498449   -0.7200
     10 C10         2.2425    0.3934   45.6160 C.2     1  ZINC000011498449    0.5600
     11 O11         3.1789   -0.3816   45.6027 O.2     1  ZINC000011498449   -0.5100
     12 C12         1.4511    0.6167   44.3889 C.ar    1  ZINC000011498449   -0.1300
     13 C13         0.1647    0.0853   44.2777 C.ar    1  ZINC000011498449   -0.0600
     14 C14        -0.5692    0.2975   43.1301 C.ar    1  ZINC000011498449   -0.1100
     15 C15        -0.0337    1.0364   42.0877 C.ar    1  ZINC000011498449    0.0000
     16 Cl16       -0.9652    1.2990   40.6467 Cl      1  ZINC000011498449   -0.0400
     17 C17         1.2413    1.5666   42.1906 C.ar    1  ZINC000011498449   -0.1100
     18 C18         1.9847    1.3659   43.3364 C.ar    1  ZINC000011498449    0.0300
     19 Cl19        3.5830    2.0311   43.4644 Cl      1  ZINC000011498449   -0.0100
     20 C20         2.8642    0.4590   50.7980 C.3     1  ZINC000011498449    0.0700
     21 C21         4.0123    0.5840   51.8060 C.3     1  ZINC000011498449    0.0500
     22 O22         3.7026    1.6133   52.7484 O.3     1  ZINC000011498449   -0.3700
     23 H23         4.1296    3.9401   53.9797 H       1  ZINC000011498449    0.0700
     24 H24         3.1921    4.9291   52.8345 H       1  ZINC000011498449    0.0800
     25 H25         2.3789    3.6740   53.7998 H       1  ZINC000011498449    0.0700
     26 H26         1.4587    2.7754   51.7227 H       1  ZINC000011498449    0.0800
     27 H27         2.3732    3.8506   50.6341 H       1  ZINC000011498449    0.1000
     28 H28         3.7678    0.7480   47.7079 H       1  ZINC000011498449    0.1000
     29 H29         2.3849   -0.0924   48.4492 H       1  ZINC000011498449    0.1000
     30 H30         1.1782    1.6664   46.7613 H       1  ZINC000011498449    0.4100
     31 H31        -0.2544   -0.4913   45.0891 H       1  ZINC000011498449    0.1500
     32 H32        -1.5641   -0.1135   43.0433 H       1  ZINC000011498449    0.1500
     33 H33         1.6533    2.1417   41.3745 H       1  ZINC000011498449    0.1500
     34 H34         1.9744    0.0793   51.3003 H       1  ZINC000011498449    0.0900
     35 H35         3.1520   -0.2209   49.9961 H       1  ZINC000011498449    0.1000
     36 H36         4.1412   -0.3629   52.3303 H       1  ZINC000011498449    0.1100
     37 H37         4.9325    0.8380   51.2799 H       1  ZINC000011498449    0.0600
@<TRIPOS>BOND
     1     1     2    1
     2     1    23    1
     3     1    24    1
     4     1    25    1
     5     2     3    1
     6     2    22    1
     7     2     4    1
     8     4     5    1
     9     4    26    1
    10     4    27    1
    11     5     6   am
    12     5    20    1
    13     6     7    2
    14     6     8    1
    15     8     9    1
    16     8    28    1
    17     8    29    1
    18     9    10   am
    19     9    30    1
    20    10    11    2
    21    10    12    1
    22    12    18   ar
    23    12    13   ar
    24    13    14   ar
    25    13    31    1
    26    14    15   ar
    27    14    32    1
    28    15    16    1
    29    15    17   ar
    30    17    18   ar
    31    17    33    1
    32    18    19    1
    33    20    21    1
    34    20    34    1
    35    20    35    1
    36    21    22    1
    37    21    36    1
    38    21    37    1
@<TRIPOS>SUBSTRUCTURE
     1 ZINC000011498449        1 TEMP              0 ****  ****    0 ROOT


##########                                Name:    ZINC000469391664
##########                DOCK_Rotatable_Bonds:                   6
##########                         Heavy_Atoms:                  29
##########                    Molecular_Weight:             408.524
##########                DOCK_Rotatable_Bonds:                   6
##########                       Formal_Charge:         -0.00999999
##########                     HBond_Acceptors:                   7
##########                        HBond_Donors:                   0
##########                         Heavy_Atoms:                  29
##########                          Grid_Score:          -24.688744
##########                     Grid_vdw_energy:          -24.834461
##########                      Grid_es_energy:            0.145717
##########           Internal_energy_repulsive:           34.333340

@<TRIPOS>MOLECULE
ZINC000469391664
 53 56 1 0 0
SMALL
USER_CHARGES


@<TRIPOS>ATOM
      1 C1        -13.0189    1.0223   51.6558 C.3     1  ZINC000469391664   -0.1500
      2 C2        -13.3431   -0.0612   52.6862 C.3     1  ZINC000469391664   -0.1000
      3 H3        -13.2841   -1.0414   52.2132 H       1  ZINC000469391664    0.0800
      4 C4        -14.7569    0.1585   53.2295 C.3     1  ZINC000469391664   -0.1300
      5 C5        -15.0908   -0.9478   54.2350 C.3     1  ZINC000469391664    0.1100
      6 N6        -14.0458   -0.9799   55.2674 N.am    1  ZINC000469391664   -0.6100
      7 C7        -14.3685   -0.9037   56.5737 C.2     1  ZINC000469391664    0.5600
      8 O8        -15.5338   -0.8074   56.9076 O.2     1  ZINC000469391664   -0.5000
      9 C9        -13.3081   -0.9372   57.5984 C.ar    1  ZINC000469391664   -0.1100
     10 C10       -12.5531    0.2069   57.8659 C.ar    1  ZINC000469391664   -0.0900
     11 C11       -11.5640    0.1693   58.8251 C.ar    1  ZINC000469391664   -0.1000
     12 C12       -11.3133   -0.9990   59.5263 C.ar    1  ZINC000469391664   -0.0900
     13 C13       -12.0508   -2.1381   59.2727 C.ar    1  ZINC000469391664   -0.1000
     14 C14       -13.0555   -2.1174   58.3145 C.ar    1  ZINC000469391664    0.1500
     15 N15       -13.8003   -3.2645   58.0572 N.am    1  ZINC000469391664   -0.5800
     16 C16       -13.3089   -4.2572   57.0985 C.3     1  ZINC000469391664    0.0900
     17 C17       -14.9737   -3.4621   58.6901 C.2     1  ZINC000469391664    0.6100
     18 O18       -15.6250   -4.4653   58.4652 O.2     1  ZINC000469391664   -0.5200
     19 C19       -15.4652   -2.4691   59.6490 C.2     1  ZINC000469391664   -0.2600
     20 C20       -16.7789   -2.2376   59.9475 C.2     1  ZINC000469391664   -0.0500
     21 C21       -16.9570   -1.2477   60.8845 C.2     1  ZINC000469391664   -0.1500
     22 C22       -15.8302   -0.6867   61.3390 C.2     1  ZINC000469391664   -0.2600
     23 S23       -14.4595   -1.3897   60.6056 S.3     1  ZINC000469391664    0.2300
     24 C24       -12.6425   -1.0970   54.8486 C.3     1  ZINC000469391664    0.1000
     25 C25       -12.3361    0.0113   53.8363 C.3     1  ZINC000469391664    0.1300
     26 H26       -12.4118    0.9822   54.3259 H       1  ZINC000469391664    0.1000
     27 N27       -10.9801   -0.1672   53.3112 N.pl3   1  ZINC000469391664   -0.4500
     28 C28       -10.5726   -1.1260   52.4234 C.2     1  ZINC000469391664   -0.0500
     29 C29        -9.2574   -0.9279   52.2124 C.2     1  ZINC000469391664   -0.0300
     30 N30        -8.8723    0.1231   52.9512 N.2     1  ZINC000469391664   -0.4900
     31 C31        -9.9000    0.5872   53.6081 C.2     1  ZINC000469391664    0.1800
     32 H32       -12.0122    0.8656   51.2683 H       1  ZINC000469391664    0.0600
     33 H33       -13.7358    0.9705   50.8363 H       1  ZINC000469391664    0.0600
     34 H34       -13.0778    2.0026   52.1286 H       1  ZINC000469391664    0.0600
     35 H35       -14.8096    1.1281   53.7246 H       1  ZINC000469391664    0.0700
     36 H36       -15.4713    0.1302   52.4068 H       1  ZINC000469391664    0.0900
     37 H37       -16.0558   -0.7417   54.6981 H       1  ZINC000469391664    0.1000
     38 H38       -15.1273   -1.9090   53.7222 H       1  ZINC000469391664    0.0800
     39 H39       -12.7440    1.1199   57.3217 H       1  ZINC000469391664    0.1400
     40 H40       -10.9812    1.0548   59.0308 H       1  ZINC000469391664    0.1400
     41 H41       -10.5359   -1.0187   60.2757 H       1  ZINC000469391664    0.1400
     42 H42       -11.8491   -3.0450   59.8233 H       1  ZINC000469391664    0.1400
     43 H43       -12.7708   -5.0414   57.6310 H       1  ZINC000469391664    0.0600
     44 H44       -14.1521   -4.6942   56.5634 H       1  ZINC000469391664    0.0900
     45 H45       -12.6382   -3.7748   56.3876 H       1  ZINC000469391664    0.0700
     46 H46       -17.5955   -2.7782   59.4922 H       1  ZINC000469391664    0.1500
     47 H47       -17.9349   -0.9446   61.2285 H       1  ZINC000469391664    0.1400
     48 H48       -15.7933    0.1029   62.0750 H       1  ZINC000469391664    0.1600
     49 H49       -11.9918   -0.9892   55.7164 H       1  ZINC000469391664    0.1000
     50 H50       -12.4792   -2.0703   54.3857 H       1  ZINC000469391664    0.0800
     51 H51       -11.1876   -1.8941   51.9781 H       1  ZINC000469391664    0.1700
     52 H52        -8.6238   -1.5130   51.5622 H       1  ZINC000469391664    0.1700
     53 H53        -9.8874    1.4305   54.2827 H       1  ZINC000469391664    0.2000
@<TRIPOS>BOND
     1     1     2    1
     2     1    32    1
     3     1    33    1
     4     1    34    1
     5     2     3    1
     6     2    25    1
     7     2     4    1
     8     4     5    1
     9     4    35    1
    10     4    36    1
    11     5     6    1
    12     5    37    1
    13     5    38    1
    14     6     7   am
    15     6    24    1
    16     7     8    2
    17     7     9    1
    18     9    14   ar
    19     9    10   ar
    20    10    11   ar
    21    10    39    1
    22    11    12   ar
    23    11    40    1
    24    12    13   ar
    25    12    41    1
    26    13    14   ar
    27    13    42    1
    28    14    15    1
    29    15    16    1
    30    15    17   am
    31    16    43    1
    32    16    44    1
    33    16    45    1
    34    17    18    2
    35    17    19    1
    36    19    23    1
    37    19    20    2
    38    20    21    1
    39    20    46    1
    40    21    22    2
    41    21    47    1
    42    22    23    1
    43    22    48    1
    44    24    25    1
    45    24    49    1
    46    24    50    1
    47    25    26    1
    48    25    27    1
    49    27    31    1
    50    27    28    1
    51    28    29    2
    52    28    51    1
    53    29    30    1
    54    29    52    1
    55    30    31    2
    56    31    53    1
@<TRIPOS>SUBSTRUCTURE
     1 ZINC000469391664        1 TEMP              0 ****  ****    0 ROOT


##########                                Name:    ZINC001010141213
##########                DOCK_Rotatable_Bonds:                   4
##########                         Heavy_Atoms:                  24
##########                    Molecular_Weight:             330.346
##########                DOCK_Rotatable_Bonds:                   4
##########                       Formal_Charge:          -0.0100003
##########                     HBond_Acceptors:                   9
##########                        HBond_Donors:                   1
##########                         Heavy_Atoms:                  24
##########                          Grid_Score:          -24.583586
##########                     Grid_vdw_energy:          -24.708448
##########                      Grid_es_energy:            0.124863
##########           Internal_energy_repulsive:           15.792557

@<TRIPOS>MOLECULE
ZINC001010141213
 42 44 1 0 0
SMALL
USER_CHARGES


@<TRIPOS>ATOM
      1 C1         -1.1402    2.5177   50.9612 C.3     1  ZINC001010141213   -0.0800
      2 C2         -1.7722    3.8104   51.4093 C.2     1  ZINC001010141213   -0.1500
      3 C3         -3.0979    4.1858   51.2785 C.2     1  ZINC001010141213   -0.0400
      4 C4         -4.1827    3.3994   50.6699 C.2     1  ZINC001010141213    0.6000
      5 O5         -4.2455    3.2836   49.4608 O.2     1  ZINC001010141213   -0.5100
      6 N6         -5.1066    2.8072   51.4525 N.am    1  ZINC001010141213   -0.6100
      7 C7         -5.0467    2.9435   52.9145 C.3     1  ZINC001010141213    0.0900
      8 C8         -6.3873    3.4997   53.4101 C.3     1  ZINC001010141213    0.0700
      9 N9         -7.4730    2.7067   52.8167 N.am    1  ZINC001010141213   -0.6000
     10 C10        -8.3974    2.1154   53.5991 C.2     1  ZINC001010141213    0.5900
     11 O11        -8.3378    2.2357   54.8072 O.2     1  ZINC001010141213   -0.5200
     12 C12        -9.4843    1.3203   52.9879 C.2     1  ZINC001010141213    0.0300
     13 N13        -9.3168    0.0339   52.7790 N.2     1  ZINC001010141213   -0.1800
     14 N14       -10.2293   -0.6994   52.2517 N.am    1  ZINC001010141213   -0.4400
     15 C15       -11.4192   -0.1925   51.8788 C.2     1  ZINC001010141213    0.4800
     16 O16       -12.2659   -0.9156   51.3807 O.2     1  ZINC001010141213   -0.5100
     17 C17       -11.6809    1.1828   52.0684 C.2     1  ZINC001010141213   -0.1800
     18 C18       -10.7040    1.9466   52.6349 C.2     1  ZINC001010141213   -0.0400
     19 C19        -7.5329    2.5703   51.3545 C.3     1  ZINC001010141213    0.1000
     20 C20        -6.1954    2.0188   50.8586 C.3     1  ZINC001010141213    0.1000
     21 N21        -3.1976    5.4326   51.8277 N.pl3   1  ZINC001010141213   -0.2700
     22 C22        -4.4283    6.2230   51.9096 C.3     1  ZINC001010141213    0.0900
     23 N23        -2.0478    5.8059   52.2617 N.2     1  ZINC001010141213   -0.2800
     24 C24        -1.1458    4.8817   52.0502 C.2     1  ZINC001010141213    0.0100
     25 H25        -1.2015    1.7852   51.7661 H       1  ZINC001010141213    0.0700
     26 H26        -1.6676    2.1399   50.0853 H       1  ZINC001010141213    0.0600
     27 H27        -0.0946    2.6930   50.7082 H       1  ZINC001010141213    0.0700
     28 H28        -4.8661    1.9679   53.3658 H       1  ZINC001010141213    0.0800
     29 H29        -4.2437    3.6290   53.1854 H       1  ZINC001010141213    0.1000
     30 H30        -6.4338    3.4281   54.4968 H       1  ZINC001010141213    0.1400
     31 H31        -6.4864    4.5415   53.1053 H       1  ZINC001010141213    0.0800
     32 H32       -10.0564   -1.6445   52.1182 H       1  ZINC001010141213    0.4500
     33 H33       -12.6272    1.6147   51.7780 H       1  ZINC001010141213    0.1700
     34 H34       -10.8534    3.0030   52.8021 H       1  ZINC001010141213    0.1700
     35 H35        -8.3359    1.8849   51.0836 H       1  ZINC001010141213    0.1100
     36 H36        -7.7135    3.5460   50.9032 H       1  ZINC001010141213    0.0800
     37 H37        -6.1503    2.0911   49.7719 H       1  ZINC001010141213    0.1100
     38 H38        -6.0939    0.9772   51.1630 H       1  ZINC001010141213    0.0800
     39 H39        -4.8971    6.0660   52.8811 H       1  ZINC001010141213    0.0900
     40 H40        -4.1902    7.2798   51.7877 H       1  ZINC001010141213    0.1000
     41 H41        -5.1133    5.9117   51.1210 H       1  ZINC001010141213    0.0900
     42 H42        -0.1010    4.9399   52.3174 H       1  ZINC001010141213    0.1900
@<TRIPOS>BOND
     1     1     2    1
     2     1    25    1
     3     1    26    1
     4     1    27    1
     5     2    24    1
     6     2     3    2
     7     3     4    1
     8     3    21    1
     9     4     5    2
    10     4     6   am
    11     6    20    1
    12     6     7    1
    13     7     8    1
    14     7    28    1
    15     7    29    1
    16     8     9    1
    17     8    30    1
    18     8    31    1
    19     9    10   am
    20     9    19    1
    21    10    11    2
    22    10    12    1
    23    12    18    1
    24    12    13    2
    25    13    14    1
    26    14    15   am
    27    14    32    1
    28    15    16    2
    29    15    17    1
    30    17    18    2
    31    17    33    1
    32    18    34    1
    33    19    20    1
    34    19    35    1
    35    19    36    1
    36    20    37    1
    37    20    38    1
    38    21    22    1
    39    21    23    1
    40    22    39    1
    41    22    40    1
    42    22    41    1
    43    23    24    2
    44    24    42    1
@<TRIPOS>SUBSTRUCTURE
     1 ZINC001010141213        1 TEMP              0 ****  ****    0 ROOT


##########                                Name:    ZINC000931749147
##########                DOCK_Rotatable_Bonds:                   5
##########                         Heavy_Atoms:                  25
##########                    Molecular_Weight:             354.397
##########                DOCK_Rotatable_Bonds:                   5
##########                       Formal_Charge:        -4.76837e-07
##########                     HBond_Acceptors:                   7
##########                        HBond_Donors:                   1
##########                         Heavy_Atoms:                  25
##########                          Grid_Score:          -24.556187
##########                     Grid_vdw_energy:          -24.176155
##########                      Grid_es_energy:           -0.380032
##########           Internal_energy_repulsive:           82.242561

@<TRIPOS>MOLECULE
ZINC000931749147
 49 51 1 0 0
SMALL
USER_CHARGES


@<TRIPOS>ATOM
      1 C1         -9.5654    4.1485   50.9726 C.3     1  ZINC000931749147   -0.1100
      2 C2         -9.6687    2.7354   51.4859 C.ar    1  ZINC000931749147   -0.1300
      3 C3         -8.5242    1.9638   51.6316 C.ar    1  ZINC000931749147    0.1800
      4 N4         -7.2721    2.4978   51.3020 N.am    1  ZINC000931749147   -0.6800
      5 C5         -6.4678    2.9773   52.2713 C.2     1  ZINC000931749147    0.7100
      6 O6         -6.8291    2.9462   53.4319 O.2     1  ZINC000931749147   -0.5500
      7 N7         -5.2629    3.4911   51.9542 N.am    1  ZINC000931749147   -0.6200
      8 C8         -4.8039    3.5395   50.5570 C.3     1  ZINC000931749147    0.0700
      9 C9         -3.3976    2.9330   50.4888 C.3     1  ZINC000931749147    0.0500
     10 O10        -2.5610    3.5745   51.4544 O.3     1  ZINC000931749147   -0.3700
     11 C11        -2.9827    3.3912   52.8081 C.3     1  ZINC000931749147    0.0500
     12 C12        -4.3700    4.0262   52.9944 C.3     1  ZINC000931749147    0.1300
     13 H13        -4.2938    5.1093   52.8990 H       1  ZINC000931749147    0.0900
     14 C14        -4.9191    3.6682   54.3770 C.3     1  ZINC000931749147   -0.1100
     15 C15        -3.8769    4.0101   55.4438 C.3     1  ZINC000931749147   -0.1000
     16 C16        -4.5313    4.8417   56.5514 C.3     1  ZINC000931749147   -0.1500
     17 C17        -3.5018    5.1119   57.6517 C.3     1  ZINC000931749147    0.0600
     18 O18        -3.0034    3.8692   58.1515 O.3     1  ZINC000931749147   -0.3800
     19 C19        -2.3393    3.0700   57.1705 C.3     1  ZINC000931749147    0.0600
     20 C20        -3.3221    2.7178   56.0508 C.3     1  ZINC000931749147   -0.1500
     21 C21        -8.6219    0.6619   52.1047 C.ar    1  ZINC000931749147   -0.1200
     22 C22        -9.8571    0.1361   52.4299 C.ar    1  ZINC000931749147   -0.1100
     23 C23       -10.9985    0.9056   52.2847 C.ar    1  ZINC000931749147    0.0500
     24 F24       -12.2056    0.3893   52.6035 F       1  ZINC000931749147   -0.1300
     25 C25       -10.9037    2.2080   51.8179 C.ar    1  ZINC000931749147    0.0900
     26 F26       -12.0186    2.9578   51.6767 F       1  ZINC000931749147   -0.1200
     27 H27        -9.4276    4.8307   51.8115 H       1  ZINC000931749147    0.0800
     28 H28        -8.7145    4.2280   50.2961 H       1  ZINC000931749147    0.0700
     29 H29       -10.4794    4.4090   50.4388 H       1  ZINC000931749147    0.0800
     30 H30        -6.9838    2.5226   50.3762 H       1  ZINC000931749147    0.4100
     31 H31        -5.4827    2.9641   49.9276 H       1  ZINC000931749147    0.0800
     32 H32        -4.7743    4.5743   50.2158 H       1  ZINC000931749147    0.0900
     33 H33        -3.4505    1.8659   50.7045 H       1  ZINC000931749147    0.0600
     34 H34        -2.9842    3.0835   49.4916 H       1  ZINC000931749147    0.1100
     35 H35        -3.0340    2.3257   53.0322 H       1  ZINC000931749147    0.0600
     36 H36        -2.2707    3.8713   53.4794 H       1  ZINC000931749147    0.1100
     37 H37        -5.8304    4.2360   54.5641 H       1  ZINC000931749147    0.1100
     38 H38        -5.1412    2.6018   54.4147 H       1  ZINC000931749147    0.0700
     39 H39        -3.0645    4.5784   54.9909 H       1  ZINC000931749147    0.0700
     40 H40        -4.8800    5.7882   56.1385 H       1  ZINC000931749147    0.0700
     41 H41        -5.3752    4.2924   56.9690 H       1  ZINC000931749147    0.0700
     42 H42        -2.6773    5.6960   57.2427 H       1  ZINC000931749147    0.0500
     43 H43        -3.9735    5.6668   58.4626 H       1  ZINC000931749147    0.0900
     44 H44        -1.4997    3.6275   56.7552 H       1  ZINC000931749147    0.0500
     45 H45        -1.9737    2.1541   57.6347 H       1  ZINC000931749147    0.0900
     46 H46        -4.1416    2.1257   56.4583 H       1  ZINC000931749147    0.0700
     47 H47        -2.8061    2.1454   55.2799 H       1  ZINC000931749147    0.0700
     48 H48        -7.7321    0.0604   52.2181 H       1  ZINC000931749147    0.1800
     49 H49        -9.9325   -0.8766   52.7976 H       1  ZINC000931749147    0.1500
@<TRIPOS>BOND
     1     1     2    1
     2     1    27    1
     3     1    28    1
     4     1    29    1
     5     2    25   ar
     6     2     3   ar
     7     3     4    1
     8     3    21   ar
     9     4     5   am
    10     4    30    1
    11     5     6    2
    12     5     7   am
    13     7    12    1
    14     7     8    1
    15     8     9    1
    16     8    31    1
    17     8    32    1
    18     9    10    1
    19     9    33    1
    20     9    34    1
    21    10    11    1
    22    11    12    1
    23    11    35    1
    24    11    36    1
    25    12    13    1
    26    12    14    1
    27    14    15    1
    28    14    37    1
    29    14    38    1
    30    15    20    1
    31    15    16    1
    32    15    39    1
    33    16    17    1
    34    16    40    1
    35    16    41    1
    36    17    18    1
    37    17    42    1
    38    17    43    1
    39    18    19    1
    40    19    20    1
    41    19    44    1
    42    19    45    1
    43    20    46    1
    44    20    47    1
    45    21    22   ar
    46    21    48    1
    47    22    23   ar
    48    22    49    1
    49    23    24    1
    50    23    25   ar
    51    25    26    1
@<TRIPOS>SUBSTRUCTURE
     1 ZINC000931749147        1 TEMP              0 ****  ****    0 ROOT


##########                                Name:    ZINC000518937710
##########                DOCK_Rotatable_Bonds:                   6
##########                         Heavy_Atoms:                  25
##########                    Molecular_Weight:             397.421
##########                DOCK_Rotatable_Bonds:                   6
##########                       Formal_Charge:          -0.0199997
##########                     HBond_Acceptors:                  11
##########                        HBond_Donors:                   0
##########                         Heavy_Atoms:                  25
##########                          Grid_Score:          -24.529388
##########                     Grid_vdw_energy:          -23.653122
##########                      Grid_es_energy:           -0.876266
##########           Internal_energy_repulsive:           18.809013

@<TRIPOS>MOLECULE
ZINC000518937710
 42 44 1 0 0
SMALL
USER_CHARGES


@<TRIPOS>ATOM
      1 C1        -11.6962   -2.9569   55.3956 C.3     1  ZINC000518937710   -0.1900
      2 C2        -11.9609   -1.4865   55.7253 C.3     1  ZINC000518937710    0.1700
      3 H3        -11.0387   -1.0200   56.0716 H       1  ZINC000518937710    0.1100
      4 C4        -12.4582   -0.7643   54.4715 C.3     1  ZINC000518937710   -0.6600
      5 S5        -11.0374   -0.1961   53.4973 S.o2    1  ZINC000518937710    2.4000
      6 C6        -11.8447    0.7264   52.1602 C.3     1  ZINC000518937710   -0.6600
      7 O7        -10.2836    0.7152   54.2851 O.2     1  ZINC000518937710   -0.9200
      8 O8        -10.3894   -1.3302   52.9378 O.2     1  ZINC000518937710   -0.9300
      9 N9        -12.9779   -1.3970   56.7760 N.am    1  ZINC000518937710   -0.9600
     10 C10       -14.1262   -2.3065   56.7634 C.3     1  ZINC000518937710    0.0800
     11 C11       -15.5135   -1.6956   56.9713 C.3     1  ZINC000518937710   -0.1800
     12 C12       -15.0991   -2.1996   55.5874 C.3     1  ZINC000518937710   -0.1800
     13 S13       -12.8293   -0.2675   57.9780 S.o2    1  ZINC000518937710    2.6900
     14 O14       -12.6652    0.9873   57.3315 O.2     1  ZINC000518937710   -0.9400
     15 O15       -13.8704   -0.5322   58.9082 O.2     1  ZINC000518937710   -0.9400
     16 C16       -11.3158   -0.5961   58.8183 C.ar    1  ZINC000518937710   -0.6400
     17 C17       -11.2671   -1.5695   59.7987 C.ar    1  ZINC000518937710   -0.0300
     18 C18       -10.0814   -1.8300   60.4600 C.ar    1  ZINC000518937710   -0.1300
     19 C19        -8.9392   -1.1187   60.1433 C.ar    1  ZINC000518937710   -0.0300
     20 C20        -8.9806   -0.1417   59.1619 C.ar    1  ZINC000518937710    0.0200
     21 C21       -10.1738    0.1172   58.4920 C.ar    1  ZINC000518937710    0.1900
     22 O22        -9.9568    1.1119   57.5827 O.3     1  ZINC000518937710   -0.2800
     23 C23        -8.7250    1.7392   57.9859 C.3     1  ZINC000518937710    0.5700
     24 F24        -8.0037    2.1700   56.8674 F       1  ZINC000518937710   -0.1200
     25 F25        -8.9786    2.8112   58.8483 F       1  ZINC000518937710   -0.1400
     26 O26        -8.0148    0.6876   58.6691 O.3     1  ZINC000518937710   -0.2900
     27 H27       -12.6261   -3.4325   55.0842 H       1  ZINC000518937710    0.1000
     28 H28       -10.9664   -3.0226   54.5886 H       1  ZINC000518937710    0.0800
     29 H29       -11.3074   -3.4630   56.2792 H       1  ZINC000518937710    0.0700
     30 H30       -13.0592   -1.4484   53.8724 H       1  ZINC000518937710    0.1600
     31 H31       -13.0653    0.0930   54.7626 H       1  ZINC000518937710    0.1400
     32 H32       -12.3559    1.5950   52.5751 H       1  ZINC000518937710    0.1300
     33 H33       -11.0943    1.0556   51.4413 H       1  ZINC000518937710    0.1300
     34 H34       -12.5688    0.0829   51.6605 H       1  ZINC000518937710    0.1300
     35 H35       -13.9453   -3.2981   57.1784 H       1  ZINC000518937710    0.1500
     36 H36       -16.2455   -2.2853   57.5233 H       1  ZINC000518937710    0.1100
     37 H37       -15.5717   -0.6171   57.1175 H       1  ZINC000518937710    0.1000
     38 H38       -14.8848   -1.4527   54.8231 H       1  ZINC000518937710    0.1000
     39 H39       -15.5585   -3.1209   55.2289 H       1  ZINC000518937710    0.1000
     40 H40       -12.1574   -2.1273   60.0488 H       1  ZINC000518937710    0.1600
     41 H41       -10.0474   -2.5907   61.2259 H       1  ZINC000518937710    0.1600
     42 H42        -8.0142   -1.3244   60.6616 H       1  ZINC000518937710    0.1500
@<TRIPOS>BOND
     1     1     2    1
     2     1    27    1
     3     1    28    1
     4     1    29    1
     5     2     3    1
     6     2     4    1
     7     2     9    1
     8     4     5    1
     9     4    30    1
    10     4    31    1
    11     5     6    1
    12     5     7    2
    13     5     8    2
    14     6    32    1
    15     6    33    1
    16     6    34    1
    17     9    10    1
    18     9    13   am
    19    10    12    1
    20    10    11    1
    21    10    35    1
    22    11    12    1
    23    11    36    1
    24    11    37    1
    25    12    38    1
    26    12    39    1
    27    13    14    2
    28    13    15    2
    29    13    16    1
    30    16    21   ar
    31    16    17   ar
    32    17    18   ar
    33    17    40    1
    34    18    19   ar
    35    18    41    1
    36    19    20   ar
    37    19    42    1
    38    20    26    1
    39    20    21   ar
    40    21    22    1
    41    22    23    1
    42    23    24    1
    43    23    25    1
    44    23    26    1
@<TRIPOS>SUBSTRUCTURE
     1 ZINC000518937710        1 TEMP              0 ****  ****    0 ROOT


##########                                Name:    ZINC000928803822
##########                DOCK_Rotatable_Bonds:                   7
##########                         Heavy_Atoms:                  21
##########                    Molecular_Weight:             364.165
##########                DOCK_Rotatable_Bonds:                   7
##########                       Formal_Charge:         -0.00999978
##########                     HBond_Acceptors:                   7
##########                        HBond_Donors:                   1
##########                         Heavy_Atoms:                  21
##########                          Grid_Score:          -24.500322
##########                     Grid_vdw_energy:          -24.418760
##########                      Grid_es_energy:           -0.081562
##########           Internal_energy_repulsive:            7.960265

@<TRIPOS>MOLECULE
ZINC000928803822
 34 34 1 0 0
SMALL
USER_CHARGES


@<TRIPOS>ATOM
      1 C1         -4.9940    2.0203   51.3152 C.3     1  ZINC000928803822    0.0900
      2 N2         -6.4477    2.0222   51.1339 N.pl3   1  ZINC000928803822   -0.6300
      3 C3         -7.0216    2.3251   49.8204 C.3     1  ZINC000928803822    0.0900
      4 C4         -7.2867    1.7349   52.2134 C.ar    1  ZINC000928803822    0.2200
      5 C5         -7.1511    2.4374   53.4048 C.ar    1  ZINC000928803822   -0.1500
      6 C6         -7.9794    2.1566   54.4765 C.ar    1  ZINC000928803822   -0.0500
      7 Br7        -7.7875    3.1184   56.0933 Br      1  ZINC000928803822   -0.0400
      8 C8         -8.9462    1.1766   54.3692 C.ar    1  ZINC000928803822   -0.1200
      9 C9         -9.0900    0.4657   53.1765 C.ar    1  ZINC000928803822   -0.0800
     10 C10       -10.1244   -0.5842   53.0589 C.2     1  ZINC000928803822    0.5700
     11 O11       -10.1869   -1.2662   52.0546 O.2     1  ZINC000928803822   -0.5100
     12 N12       -10.9982   -0.7852   54.0653 N.am    1  ZINC000928803822   -0.7200
     13 C13       -12.0242   -1.8242   53.9481 C.3     1  ZINC000928803822    0.1100
     14 H14       -11.7531   -2.5140   53.1488 H       1  ZINC000928803822    0.1400
     15 C15       -13.3722   -1.1759   53.6269 C.3     1  ZINC000928803822   -0.0300
     16 C16       -13.4385   -0.8682   52.1889 C.1     1  ZINC000928803822    0.2000
     17 N17       -13.4897   -0.6308   51.0792 N.1     1  ZINC000928803822   -0.4000
     18 C18       -12.1281   -2.5896   55.2688 C.3     1  ZINC000928803822    0.4400
     19 F19       -13.1127   -3.5773   55.1591 F       1  ZINC000928803822   -0.1800
     20 F20       -10.8974   -3.1881   55.5592 F       1  ZINC000928803822   -0.1700
     21 F21       -12.4694   -1.7031   56.2958 F       1  ZINC000928803822   -0.1600
     22 C22        -8.2585    0.7528   52.0942 C.ar    1  ZINC000928803822   -0.1200
     23 H23        -4.6625    3.0179   51.6033 H       1  ZINC000928803822    0.0600
     24 H24        -4.7262    1.3089   52.0965 H       1  ZINC000928803822    0.0700
     25 H25        -4.5116    1.7327   50.3811 H       1  ZINC000928803822    0.0700
     26 H26        -7.1348    1.4022   49.2517 H       1  ZINC000928803822    0.0500
     27 H27        -7.9969    2.7944   49.9496 H       1  ZINC000928803822    0.0700
     28 H28        -6.3600    3.0043   49.2828 H       1  ZINC000928803822    0.0700
     29 H29        -6.3963    3.2047   53.4944 H       1  ZINC000928803822    0.1400
     30 H30        -9.5908    0.9600   55.2082 H       1  ZINC000928803822    0.1300
     31 H31       -10.9475   -0.2417   54.8672 H       1  ZINC000928803822    0.4100
     32 H32       -14.1773   -1.8624   53.8891 H       1  ZINC000928803822    0.1400
     33 H33       -13.4786   -0.2553   54.2007 H       1  ZINC000928803822    0.1300
     34 H34        -8.3653    0.2060   51.1691 H       1  ZINC000928803822    0.1500
@<TRIPOS>BOND
     1     1     2    1
     2     1    23    1
     3     1    24    1
     4     1    25    1
     5     2     3    1
     6     2     4    1
     7     3    26    1
     8     3    27    1
     9     3    28    1
    10     4    22   ar
    11     4     5   ar
    12     5     6   ar
    13     5    29    1
    14     6     7    1
    15     6     8   ar
    16     8     9   ar
    17     8    30    1
    18     9    10    1
    19     9    22   ar
    20    10    11    2
    21    10    12   am
    22    12    13    1
    23    12    31    1
    24    13    14    1
    25    13    15    1
    26    13    18    1
    27    15    16    1
    28    15    32    1
    29    15    33    1
    30    16    17    3
    31    18    19    1
    32    18    20    1
    33    18    21    1
    34    22    34    1
@<TRIPOS>SUBSTRUCTURE
     1 ZINC000928803822        1 TEMP              0 ****  ****    0 ROOT


##########                                Name:    ZINC000371438955
##########                DOCK_Rotatable_Bonds:                   4
##########                         Heavy_Atoms:                  25
##########                    Molecular_Weight:             387.499
##########                DOCK_Rotatable_Bonds:                   4
##########                       Formal_Charge:          -0.0299995
##########                     HBond_Acceptors:                   9
##########                        HBond_Donors:                   1
##########                         Heavy_Atoms:                  25
##########                          Grid_Score:          -24.438084
##########                     Grid_vdw_energy:          -24.339449
##########                      Grid_es_energy:           -0.098635
##########           Internal_energy_repulsive:           23.903452

@<TRIPOS>MOLECULE
ZINC000371438955
 47 49 1 0 0
SMALL
USER_CHARGES


@<TRIPOS>ATOM
      1 C1         -4.1554    3.4150   54.0005 C.3     1  ZINC000371438955   -0.6800
      2 S2         -5.2816    4.7259   53.4495 S.o2    1  ZINC000371438955    2.6000
      3 O3         -6.5511    4.5872   54.0727 O.2     1  ZINC000371438955   -0.9500
      4 O4         -4.6123    5.9791   53.4214 O.2     1  ZINC000371438955   -0.9500
      5 N5         -5.5692    4.3806   51.8556 N.am    1  ZINC000371438955   -0.9900
      6 C6         -6.4386    5.2404   51.1050 C.3     1  ZINC000371438955    0.1300
      7 C7         -7.8827    4.7557   51.3159 C.3     1  ZINC000371438955   -0.1700
      8 C8         -8.1886    3.5732   50.4955 C.3     1  ZINC000371438955    0.1400
      9 N9         -7.2534    2.4686   50.8147 N.am    1  ZINC000371438955   -0.6200
     10 C10        -7.6595    1.4466   51.5940 C.2     1  ZINC000371438955    0.7100
     11 O11        -6.8929    0.5401   51.8562 O.2     1  ZINC000371438955   -0.5800
     12 N12        -8.9156    1.4295   52.0824 N.am    1  ZINC000371438955   -0.7400
     13 C13        -9.3571    0.3187   52.9295 C.3     1  ZINC000371438955    0.2000
     14 H14        -8.5169   -0.3591   53.0805 H       1  ZINC000371438955    0.1100
     15 C15       -10.4636   -0.4318   52.2091 C.3     1  ZINC000371438955   -0.1300
     16 C16       -10.9037   -1.6221   53.0730 C.3     1  ZINC000371438955   -0.1100
     17 S17       -11.8389   -0.9535   54.4789 S.3     1  ZINC000371438955   -0.1000
     18 C18       -10.8173    0.3782   55.0235 C.ar    1  ZINC000371438955   -0.1100
     19 C19       -11.0949    0.9419   56.2721 C.ar    1  ZINC000371438955    0.1100
     20 F20       -12.1112    0.4535   57.0163 F       1  ZINC000371438955   -0.1300
     21 C21       -10.3400    1.9923   56.7515 C.ar    1  ZINC000371438955   -0.1300
     22 C22        -9.3024    2.4908   55.9845 C.ar    1  ZINC000371438955   -0.1000
     23 C23        -9.0252    1.9347   54.7549 C.ar    1  ZINC000371438955   -0.1000
     24 C24        -9.7767    0.8677   54.2613 C.ar    1  ZINC000371438955   -0.0800
     25 C25        -5.9150    2.4860   50.2941 C.3     1  ZINC000371438955    0.1000
     26 C26        -4.9126    3.1919   51.2462 C.3     1  ZINC000371438955    0.0900
     27 H27        -4.6372    2.4454   53.8747 H       1  ZINC000371438955    0.1300
     28 H28        -3.2422    3.4468   53.4062 H       1  ZINC000371438955    0.1300
     29 H29        -3.9099    3.5650   55.0519 H       1  ZINC000371438955    0.1300
     30 H30        -6.3385    6.2663   51.4598 H       1  ZINC000371438955    0.0800
     31 H31        -6.1835    5.1893   50.0466 H       1  ZINC000371438955    0.0800
     32 H32        -8.0229    4.5042   52.3672 H       1  ZINC000371438955    0.0800
     33 H33        -8.5694    5.5595   51.0501 H       1  ZINC000371438955    0.0900
     34 H34        -9.2102    3.2500   50.6952 H       1  ZINC000371438955    0.0900
     35 H35        -8.0946    3.8319   49.4407 H       1  ZINC000371438955    0.0700
     36 H36        -9.5272    2.1527   51.8732 H       1  ZINC000371438955    0.4000
     37 H37       -11.3110    0.2345   52.0473 H       1  ZINC000371438955    0.0900
     38 H38       -10.0942   -0.7941   51.2498 H       1  ZINC000371438955    0.1000
     39 H39       -11.5379   -2.2894   52.4895 H       1  ZINC000371438955    0.1200
     40 H40       -10.0282   -2.1624   53.4334 H       1  ZINC000371438955    0.1000
     41 H41       -10.5577    2.4223   57.7179 H       1  ZINC000371438955    0.1400
     42 H42        -8.7095    3.3164   56.3496 H       1  ZINC000371438955    0.1300
     43 H43        -8.2141    2.3323   54.1629 H       1  ZINC000371438955    0.1400
     44 H44        -5.5858    1.4594   50.1334 H       1  ZINC000371438955    0.0800
     45 H45        -5.9155    3.0080   49.3374 H       1  ZINC000371438955    0.0900
     46 H46        -4.0338    3.5042   50.6820 H       1  ZINC000371438955    0.0800
     47 H47        -4.6123    2.5015   52.0344 H       1  ZINC000371438955    0.1000
@<TRIPOS>BOND
     1     1     2    1
     2     1    27    1
     3     1    28    1
     4     1    29    1
     5     2     3    2
     6     2     4    2
     7     2     5   am
     8     5    26    1
     9     5     6    1
    10     6     7    1
    11     6    30    1
    12     6    31    1
    13     7     8    1
    14     7    32    1
    15     7    33    1
    16     8     9    1
    17     8    34    1
    18     8    35    1
    19     9    10   am
    20     9    25    1
    21    10    11    2
    22    10    12   am
    23    12    13    1
    24    12    36    1
    25    13    14    1
    26    13    24    1
    27    13    15    1
    28    15    16    1
    29    15    37    1
    30    15    38    1
    31    16    17    1
    32    16    39    1
    33    16    40    1
    34    17    18    1
    35    18    24   ar
    36    18    19   ar
    37    19    20    1
    38    19    21   ar
    39    21    22   ar
    40    21    41    1
    41    22    23   ar
    42    22    42    1
    43    23    24   ar
    44    23    43    1
    45    25    26    1
    46    25    44    1
    47    25    45    1
    48    26    46    1
    49    26    47    1
@<TRIPOS>SUBSTRUCTURE
     1 ZINC000371438955        1 TEMP              0 ****  ****    0 ROOT


##########                                Name:    ZINC001023407238
##########                DOCK_Rotatable_Bonds:                   7
##########                         Heavy_Atoms:                  25
##########                    Molecular_Weight:             349.387
##########                DOCK_Rotatable_Bonds:                   7
##########                       Formal_Charge:          -0.0300008
##########                     HBond_Acceptors:                   8
##########                        HBond_Donors:                   2
##########                         Heavy_Atoms:                  25
##########                          Grid_Score:          -24.434042
##########                     Grid_vdw_energy:          -21.346169
##########                      Grid_es_energy:           -3.087874
##########           Internal_energy_repulsive:            9.158166

@<TRIPOS>MOLECULE
ZINC001023407238
 48 50 1 0 0
SMALL
USER_CHARGES


@<TRIPOS>ATOM
      1 C1         -9.3086    6.2918   62.2598 C.3     1  ZINC001023407238   -0.0900
      2 C2        -10.6793    5.7754   62.6142 C.2     1  ZINC001023407238   -0.1100
      3 C3        -10.9778    4.8437   63.5856 C.2     1  ZINC001023407238   -0.0500
      4 C4        -10.0169    4.1713   64.4665 C.2     1  ZINC001023407238    0.6100
      5 O5         -9.6951    4.6857   65.5213 O.2     1  ZINC001023407238   -0.5100
      6 N6         -9.4903    2.9837   64.1075 N.am    1  ZINC001023407238   -0.6100
      7 C7         -8.5212    2.2040   64.8914 C.3     1  ZINC001023407238    0.0800
      8 C8         -8.2285    0.9105   64.1023 C.3     1  ZINC001023407238    0.0900
      9 H9         -7.3239    1.0201   63.5041 H       1  ZINC001023407238    0.0800
     10 O10        -8.1157   -0.2065   64.9863 O.3     1  ZINC001023407238   -0.5500
     11 C11        -9.4759    0.7699   63.1904 C.3     1  ZINC001023407238    0.1400
     12 H12       -10.3020    0.3038   63.7275 H       1  ZINC001023407238    0.1200
     13 N13        -9.1549    0.0201   61.9734 N.am    1  ZINC001023407238   -0.7200
     14 C14       -10.1124   -0.6948   61.3501 C.2     1  ZINC001023407238    0.5200
     15 O15       -11.2395   -0.7186   61.7975 O.2     1  ZINC001023407238   -0.5300
     16 C16        -9.7826   -1.4646   60.0971 C.3     1  ZINC001023407238   -0.1300
     17 C17       -10.9062   -2.4594   59.7993 C.3     1  ZINC001023407238   -0.1100
     18 H18       -11.1118   -3.0824   60.6700 H       1  ZINC001023407238    0.1100
     19 C19       -12.1838   -1.7242   59.3342 C.3     1  ZINC001023407238    0.0600
     20 O20       -12.7793   -2.6181   58.3479 O.3     1  ZINC001023407238   -0.3500
     21 C21       -11.8184   -3.3132   57.7228 C.2     1  ZINC001023407238    0.4800
     22 O22       -11.9373   -3.8493   56.6465 O.2     1  ZINC001023407238   -0.4600
     23 C23       -10.5598   -3.3289   58.5701 C.3     1  ZINC001023407238   -0.1800
     24 C24        -9.7953    2.2485   62.8666 C.3     1  ZINC001023407238    0.1000
     25 N25       -12.3421    4.6599   63.5787 N.pl3   1  ZINC001023407238   -0.4200
     26 C26       -13.0864    3.7527   64.4556 C.3     1  ZINC001023407238    0.0700
     27 C27       -12.8819    5.4580   62.6255 C.2     1  ZINC001023407238    0.0100
     28 C28       -11.8886    6.1553   62.0239 C.2     1  ZINC001023407238   -0.2000
     29 H29        -9.0815    7.1671   62.8684 H       1  ZINC001023407238    0.0600
     30 H30        -8.5676    5.5152   62.4494 H       1  ZINC001023407238    0.0600
     31 H31        -9.2853    6.5666   61.2052 H       1  ZINC001023407238    0.0700
     32 H32        -7.6024    2.7760   65.0197 H       1  ZINC001023407238    0.0800
     33 H33        -8.9453    1.9565   65.8646 H       1  ZINC001023407238    0.0800
     34 H34        -7.2823   -0.6902   64.9046 H       1  ZINC001023407238    0.3900
     35 H35        -8.2533    0.0383   61.6161 H       1  ZINC001023407238    0.4100
     36 H36        -9.6796   -0.7721   59.2618 H       1  ZINC001023407238    0.1000
     37 H37        -8.8467   -2.0051   60.2386 H       1  ZINC001023407238    0.1100
     38 H38       -12.8639   -1.5754   60.1729 H       1  ZINC001023407238    0.1200
     39 H39       -11.9278   -0.7687   58.8765 H       1  ZINC001023407238    0.0800
     40 H40        -9.7269   -2.8904   58.0204 H       1  ZINC001023407238    0.1100
     41 H41       -10.3202   -4.3477   58.8746 H       1  ZINC001023407238    0.1200
     42 H42       -10.8473    2.3606   62.6040 H       1  ZINC001023407238    0.0900
     43 H43        -9.1608    2.6048   62.0551 H       1  ZINC001023407238    0.0800
     44 H44       -13.4497    4.3031   65.3236 H       1  ZINC001023407238    0.0800
     45 H45       -13.9325    3.3337   63.9109 H       1  ZINC001023407238    0.0900
     46 H46       -12.4310    2.9465   64.7848 H       1  ZINC001023407238    0.0800
     47 H47       -13.9328    5.5291   62.3871 H       1  ZINC001023407238    0.1700
     48 H48       -12.0087    6.8723   61.2251 H       1  ZINC001023407238    0.1400
@<TRIPOS>BOND
     1     1     2    1
     2     1    29    1
     3     1    30    1
     4     1    31    1
     5     2    28    1
     6     2     3    2
     7     3     4    1
     8     3    25    1
     9     4     5    2
    10     4     6   am
    11     6    24    1
    12     6     7    1
    13     7     8    1
    14     7    32    1
    15     7    33    1
    16     8     9    1
    17     8    10    1
    18     8    11    1
    19    10    34    1
    20    11    12    1
    21    11    13    1
    22    11    24    1
    23    13    14   am
    24    13    35    1
    25    14    15    2
    26    14    16    1
    27    16    17    1
    28    16    36    1
    29    16    37    1
    30    17    18    1
    31    17    23    1
    32    17    19    1
    33    19    20    1
    34    19    38    1
    35    19    39    1
    36    20    21    1
    37    21    22    2
    38    21    23    1
    39    23    40    1
    40    23    41    1
    41    24    42    1
    42    24    43    1
    43    25    26    1
    44    25    27    1
    45    26    44    1
    46    26    45    1
    47    26    46    1
    48    27    28    2
    49    27    47    1
    50    28    48    1
@<TRIPOS>SUBSTRUCTURE
     1 ZINC001023407238        1 TEMP              0 ****  ****    0 ROOT


##########                                Name:    ZINC000002873519
##########                DOCK_Rotatable_Bonds:                   5
##########                         Heavy_Atoms:                  25
##########                    Molecular_Weight:             375.207
##########                DOCK_Rotatable_Bonds:                   5
##########                       Formal_Charge:               -0.02
##########                     HBond_Acceptors:                   6
##########                        HBond_Donors:                   0
##########                         Heavy_Atoms:                  25
##########                          Grid_Score:          -24.415375
##########                     Grid_vdw_energy:          -25.014616
##########                      Grid_es_energy:            0.599241
##########           Internal_energy_repulsive:           11.537199

@<TRIPOS>MOLECULE
ZINC000002873519
 37 39 1 0 0
SMALL
USER_CHARGES


@<TRIPOS>ATOM
      1 C1        -15.1817   -4.3305   57.5141 C.3     1  ZINC000002873519   -0.1500
      2 C2        -14.4840   -4.9115   56.3112 C.2     1  ZINC000002873519    0.4500
      3 O3        -14.8462   -5.9702   55.8555 O.2     1  ZINC000002873519   -0.4800
      4 O4        -13.4598   -4.2522   55.7457 O.3     1  ZINC000002873519   -0.2900
      5 C5        -12.5873   -3.6348   56.5822 C.ar    1  ZINC000002873519    0.1200
      6 C6        -11.6940   -4.3825   57.3312 C.ar    1  ZINC000002873519   -0.1100
      7 C7        -10.8052   -3.7537   58.1826 C.ar    1  ZINC000002873519   -0.0800
      8 C8        -10.7980   -2.3715   58.2960 C.ar    1  ZINC000002873519   -0.0400
      9 Cl9        -9.6742   -1.5988   59.3701 Cl      1  ZINC000002873519   -0.0500
     10 C10       -11.6785   -1.6084   57.5598 C.ar    1  ZINC000002873519   -0.0800
     11 C11       -12.5819   -2.2319   56.6883 C.ar    1  ZINC000002873519   -0.0700
     12 C12       -13.5203   -1.4300   55.9021 C.2     1  ZINC000002873519    0.0400
     13 C13       -13.4038   -1.3818   54.5267 C.2     1  ZINC000002873519   -0.1900
     14 C14       -14.2416   -0.6325   53.5745 C.2     1  ZINC000002873519   -0.2000
     15 C15       -13.7491   -0.8922   52.3450 C.2     1  ZINC000002873519    0.1200
     16 C16       -14.2991   -0.3363   51.0926 C.ar    1  ZINC000002873519   -0.0400
     17 C17       -15.4466    0.4595   51.1230 C.ar    1  ZINC000002873519   -0.0800
     18 C18       -15.9553    0.9756   49.9497 C.ar    1  ZINC000002873519   -0.1100
     19 C19       -15.3312    0.7061   48.7431 C.ar    1  ZINC000002873519   -0.0200
     20 Cl20      -15.9779    1.3596   47.2706 Cl      1  ZINC000002873519   -0.0600
     21 C21       -14.1931   -0.0822   48.7062 C.ar    1  ZINC000002873519   -0.1100
     22 C22       -13.6707   -0.5992   49.8732 C.ar    1  ZINC000002873519   -0.0800
     23 O23       -12.6901   -1.7240   52.4075 O.3     1  ZINC000002873519   -0.2600
     24 C24       -12.4082   -2.0639   53.6781 C.2     1  ZINC000002873519    0.5200
     25 O25       -11.5127   -2.7973   54.0534 O.2     1  ZINC000002873519   -0.4200
     26 H26       -14.6923   -4.6816   58.4225 H       1  ZINC000002873519    0.1100
     27 H27       -15.1328   -3.2425   57.4722 H       1  ZINC000002873519    0.1000
     28 H28       -16.2246   -4.6475   57.5174 H       1  ZINC000002873519    0.1100
     29 H29       -11.6921   -5.4595   57.2500 H       1  ZINC000002873519    0.1500
     30 H30       -10.1116   -4.3430   58.7640 H       1  ZINC000002873519    0.1500
     31 H31       -11.6698   -0.5323   57.6515 H       1  ZINC000002873519    0.1500
     32 H32       -14.3040   -0.8759   56.3974 H       1  ZINC000002873519    0.1500
     33 H33       -15.0842   -0.0005   53.8130 H       1  ZINC000002873519    0.1700
     34 H34       -15.9347    0.6698   52.0632 H       1  ZINC000002873519    0.1400
     35 H35       -16.8426    1.5911   49.9718 H       1  ZINC000002873519    0.1400
     36 H36       -13.7112   -0.2890   47.7621 H       1  ZINC000002873519    0.1400
     37 H37       -12.7832   -1.2138   49.8431 H       1  ZINC000002873519    0.1400
@<TRIPOS>BOND
     1     1     2    1
     2     1    26    1
     3     1    27    1
     4     1    28    1
     5     2     3    2
     6     2     4    1
     7     4     5    1
     8     5    11   ar
     9     5     6   ar
    10     6     7   ar
    11     6    29    1
    12     7     8   ar
    13     7    30    1
    14     8     9    1
    15     8    10   ar
    16    10    11   ar
    17    10    31    1
    18    11    12    1
    19    12    13    2
    20    12    32    1
    21    13    24    1
    22    13    14    1
    23    14    15    2
    24    14    33    1
    25    15    16    1
    26    15    23    1
    27    16    22   ar
    28    16    17   ar
    29    17    18   ar
    30    17    34    1
    31    18    19   ar
    32    18    35    1
    33    19    20    1
    34    19    21   ar
    35    21    22   ar
    36    21    36    1
    37    22    37    1
    38    23    24    1
    39    24    25    2
@<TRIPOS>SUBSTRUCTURE
     1 ZINC000002873519        1 TEMP              0 ****  ****    0 ROOT


##########                                Name:    ZINC000347662449
##########                DOCK_Rotatable_Bonds:                   5
##########                         Heavy_Atoms:                  23
##########                    Molecular_Weight:              327.45
##########                DOCK_Rotatable_Bonds:                   5
##########                       Formal_Charge:                0.03
##########                     HBond_Acceptors:                   5
##########                        HBond_Donors:                   0
##########                         Heavy_Atoms:                  23
##########                          Grid_Score:          -24.341419
##########                     Grid_vdw_energy:          -23.581697
##########                      Grid_es_energy:           -0.759723
##########           Internal_energy_repulsive:            7.305058

@<TRIPOS>MOLECULE
ZINC000347662449
 44 46 1 0 0
SMALL
USER_CHARGES


@<TRIPOS>ATOM
      1 C1        -12.3592   -3.9699   57.1105 C.2     1  ZINC000347662449   -0.1800
      2 C2        -11.9073   -3.4669   55.9885 C.2     1  ZINC000347662449   -0.1700
      3 C3        -12.8601   -2.8270   55.0119 C.3     1  ZINC000347662449    0.1600
      4 N4        -12.1814   -1.7324   54.3135 N.am    1  ZINC000347662449   -0.6200
      5 C5        -12.2917   -1.4750   52.8728 C.3     1  ZINC000347662449    0.1100
      6 C6        -11.7937   -0.0262   52.6738 C.3     1  ZINC000347662449   -0.1100
      7 C7        -10.8582    0.1556   53.8914 C.3     1  ZINC000347662449   -0.1200
      8 H8         -9.8291   -0.0803   53.6204 H       1  ZINC000347662449    0.1400
      9 S9        -10.9719    1.8451   54.5308 S.3     1  ZINC000347662449    0.0300
     10 C10        -9.5676    1.8647   55.5950 C.2     1  ZINC000347662449    0.1900
     11 N11        -9.5866    1.6864   56.8954 N.2     1  ZINC000347662449   -0.4500
     12 C12        -8.3336    1.7668   57.3743 C.2     1  ZINC000347662449   -0.0100
     13 C13        -7.5007    2.0024   56.3463 C.2     1  ZINC000347662449   -0.0400
     14 N14        -8.2750    2.0617   55.2072 N.pl3   1  ZINC000347662449   -0.4000
     15 C15        -7.8211    2.2893   53.9004 C.ar    1  ZINC000347662449    0.1100
     16 C16        -7.4159    1.2231   53.1094 C.ar    1  ZINC000347662449   -0.1100
     17 C17        -6.9690    1.4505   51.8221 C.ar    1  ZINC000347662449   -0.1000
     18 C18        -6.9252    2.7385   51.3215 C.ar    1  ZINC000347662449   -0.0800
     19 C19        -6.4378    2.9831   49.9167 C.3     1  ZINC000347662449   -0.1200
     20 C20        -7.3282    3.8028   52.1073 C.ar    1  ZINC000347662449   -0.0700
     21 C21        -7.2790    5.2053   51.5579 C.3     1  ZINC000347662449   -0.1200
     22 C22        -7.7813    3.5812   53.3929 C.ar    1  ZINC000347662449   -0.1100
     23 C23       -11.3824   -0.8316   54.9108 C.2     1  ZINC000347662449    0.5300
     24 O24       -11.1148   -0.8167   56.0937 O.2     1  ZINC000347662449   -0.4900
     25 H25       -13.4146   -3.9260   57.3356 H       1  ZINC000347662449    0.1000
     26 H26       -11.6770   -4.4324   57.8084 H       1  ZINC000347662449    0.1000
     27 H27       -10.8519   -3.5108   55.7634 H       1  ZINC000347662449    0.1100
     28 H28       -13.1912   -3.5706   54.2870 H       1  ZINC000347662449    0.0900
     29 H29       -13.7230   -2.4349   55.5501 H       1  ZINC000347662449    0.0900
     30 H30       -11.6627   -2.1699   52.3163 H       1  ZINC000347662449    0.0800
     31 H31       -13.3295   -1.5646   52.5520 H       1  ZINC000347662449    0.0900
     32 H32       -11.2411    0.0714   51.7393 H       1  ZINC000347662449    0.1100
     33 H33       -12.6233    0.6799   52.7103 H       1  ZINC000347662449    0.0900
     34 H34        -8.0449    1.6602   58.4096 H       1  ZINC000347662449    0.1800
     35 H35        -6.4285    2.1195   56.4015 H       1  ZINC000347662449    0.1800
     36 H36        -7.4496    0.2168   53.4999 H       1  ZINC000347662449    0.1300
     37 H37        -6.6533    0.6213   51.2063 H       1  ZINC000347662449    0.1300
     38 H38        -7.2804    2.9383   49.2267 H       1  ZINC000347662449    0.0800
     39 H39        -5.9734    3.9676   49.8595 H       1  ZINC000347662449    0.0700
     40 H40        -5.7070    2.2205   49.6477 H       1  ZINC000347662449    0.0700
     41 H41        -8.2271    5.4395   51.0738 H       1  ZINC000347662449    0.0800
     42 H42        -7.1032    5.9085   52.3720 H       1  ZINC000347662449    0.0700
     43 H43        -6.4708    5.2823   50.8305 H       1  ZINC000347662449    0.0800
     44 H44        -8.0962    4.4126   54.0060 H       1  ZINC000347662449    0.1300
@<TRIPOS>BOND
     1     1     2    2
     2     1    25    1
     3     1    26    1
     4     2     3    1
     5     2    27    1
     6     3     4    1
     7     3    28    1
     8     3    29    1
     9     4    23   am
    10     4     5    1
    11     5     6    1
    12     5    30    1
    13     5    31    1
    14     6     7    1
    15     6    32    1
    16     6    33    1
    17     7     8    1
    18     7     9    1
    19     7    23    1
    20     9    10    1
    21    10    14    1
    22    10    11    2
    23    11    12    1
    24    12    13    2
    25    12    34    1
    26    13    14    1
    27    13    35    1
    28    14    15    1
    29    15    22   ar
    30    15    16   ar
    31    16    17   ar
    32    16    36    1
    33    17    18   ar
    34    17    37    1
    35    18    19    1
    36    18    20   ar
    37    19    38    1
    38    19    39    1
    39    19    40    1
    40    20    21    1
    41    20    22   ar
    42    21    41    1
    43    21    42    1
    44    21    43    1
    45    22    44    1
    46    23    24    2
@<TRIPOS>SUBSTRUCTURE
     1 ZINC000347662449        1 TEMP              0 ****  ****    0 ROOT


##########                                Name:    ZINC000345028113
##########                DOCK_Rotatable_Bonds:                   5
##########                         Heavy_Atoms:                  21
##########                    Molecular_Weight:             331.838
##########                DOCK_Rotatable_Bonds:                   5
##########                       Formal_Charge:         4.47035e-07
##########                     HBond_Acceptors:                   6
##########                        HBond_Donors:                   0
##########                         Heavy_Atoms:                  21
##########                          Grid_Score:          -24.325581
##########                     Grid_vdw_energy:          -24.718634
##########                      Grid_es_energy:            0.393053
##########           Internal_energy_repulsive:           18.587811

@<TRIPOS>MOLECULE
ZINC000345028113
 40 41 1 0 0
SMALL
USER_CHARGES


@<TRIPOS>ATOM
      1 C1        -14.0600   -2.3676   55.8673 C.3     1  ZINC000345028113   -0.1700
      2 C2        -12.6077   -2.6570   55.4824 C.3     1  ZINC000345028113    0.1400
      3 H3        -12.5311   -3.6708   55.0896 H       1  ZINC000345028113    0.1100
      4 C4        -11.7144   -2.5199   56.7200 C.3     1  ZINC000345028113   -0.0700
      5 H5        -10.6851   -2.7627   56.4563 H       1  ZINC000345028113    0.0900
      6 C6        -12.2023   -3.4731   57.8128 C.3     1  ZINC000345028113   -0.1400
      7 S7        -11.8018   -0.8060   57.3183 S.3     1  ZINC000345028113   -0.2400
      8 C8        -11.3531    0.1451   55.8362 C.3     1  ZINC000345028113   -0.1100
      9 C9        -12.2830   -0.2617   54.6881 C.3     1  ZINC000345028113    0.1000
     10 N10       -12.1747   -1.7035   54.4597 N.am    1  ZINC000345028113   -0.6100
     11 C11       -11.6711   -2.1580   53.2951 C.2     1  ZINC000345028113    0.5200
     12 O12       -11.5771   -3.3512   53.0997 O.2     1  ZINC000345028113   -0.5300
     13 C13       -11.2246   -1.1835   52.2358 C.3     1  ZINC000345028113   -0.1400
     14 C14        -9.8656   -0.5968   52.6227 C.3     1  ZINC000345028113    0.0700
     15 O15        -9.5132    0.4369   51.7012 O.3     1  ZINC000345028113   -0.3000
     16 C16        -8.2724    0.9789   51.8264 C.ar    1  ZINC000345028113    0.1300
     17 C17        -7.1535    0.2389   51.4766 C.ar    1  ZINC000345028113   -0.1700
     18 C18        -5.8929    0.7910   51.6038 C.ar    1  ZINC000345028113   -0.1100
     19 C19        -5.7466    2.0823   52.0804 C.ar    1  ZINC000345028113    0.0800
     20 F20        -4.5136    2.6205   52.2036 F       1  ZINC000345028113   -0.1300
     21 C21        -6.8629    2.8234   52.4304 C.ar    1  ZINC000345028113   -0.1100
     22 C22        -8.1253    2.2758   52.2993 C.ar    1  ZINC000345028113   -0.0400
     23 Cl23       -9.5247    3.2046   52.7380 Cl      1  ZINC000345028113   -0.0400
     24 H24       -14.6955   -2.4652   54.9871 H       1  ZINC000345028113    0.0600
     25 H25       -14.3824   -3.0776   56.6288 H       1  ZINC000345028113    0.0800
     26 H26       -14.1366   -1.3537   56.2601 H       1  ZINC000345028113    0.0800
     27 H27       -12.1588   -4.4987   57.4463 H       1  ZINC000345028113    0.0800
     28 H28       -11.5657   -3.3741   58.6921 H       1  ZINC000345028113    0.0700
     29 H29       -13.2301   -3.2255   58.0785 H       1  ZINC000345028113    0.0700
     30 H30       -11.4660    1.2104   56.0376 H       1  ZINC000345028113    0.1200
     31 H31       -10.3199   -0.0697   55.5631 H       1  ZINC000345028113    0.0900
     32 H32       -13.3115   -0.0113   54.9475 H       1  ZINC000345028113    0.0900
     33 H33       -11.9966    0.2721   53.7820 H       1  ZINC000345028113    0.1000
     34 H34       -11.1384   -1.7003   51.2799 H       1  ZINC000345028113    0.1100
     35 H35       -11.9561   -0.3800   52.1498 H       1  ZINC000345028113    0.1100
     36 H36        -9.9220   -0.1825   53.6294 H       1  ZINC000345028113    0.0800
     37 H37        -9.1097   -1.3817   52.5948 H       1  ZINC000345028113    0.0800
     38 H38        -7.2667   -0.7689   51.1051 H       1  ZINC000345028113    0.1500
     39 H39        -5.0212    0.2143   51.3316 H       1  ZINC000345028113    0.1500
     40 H40        -6.7473    3.8307   52.8023 H       1  ZINC000345028113    0.1500
@<TRIPOS>BOND
     1     1     2    1
     2     1    24    1
     3     1    25    1
     4     1    26    1
     5     2     3    1
     6     2    10    1
     7     2     4    1
     8     4     5    1
     9     4     6    1
    10     4     7    1
    11     6    27    1
    12     6    28    1
    13     6    29    1
    14     7     8    1
    15     8     9    1
    16     8    30    1
    17     8    31    1
    18     9    10    1
    19     9    32    1
    20     9    33    1
    21    10    11   am
    22    11    12    2
    23    11    13    1
    24    13    14    1
    25    13    34    1
    26    13    35    1
    27    14    15    1
    28    14    36    1
    29    14    37    1
    30    15    16    1
    31    16    22   ar
    32    16    17   ar
    33    17    18   ar
    34    17    38    1
    35    18    19   ar
    36    18    39    1
    37    19    20    1
    38    19    21   ar
    39    21    22   ar
    40    21    40    1
    41    22    23    1
@<TRIPOS>SUBSTRUCTURE
     1 ZINC000345028113        1 TEMP              0 ****  ****    0 ROOT


##########                                Name:    ZINC000550782577
##########                DOCK_Rotatable_Bonds:                   5
##########                         Heavy_Atoms:                  25
##########                    Molecular_Weight:              338.45
##########                DOCK_Rotatable_Bonds:                   5
##########                       Formal_Charge:         -0.00999954
##########                     HBond_Acceptors:                   4
##########                        HBond_Donors:                   0
##########                         Heavy_Atoms:                  25
##########                          Grid_Score:          -24.316971
##########                     Grid_vdw_energy:          -24.203943
##########                      Grid_es_energy:           -0.113028
##########           Internal_energy_repulsive:           21.147381

@<TRIPOS>MOLECULE
ZINC000550782577
 51 53 1 0 0
SMALL
USER_CHARGES


@<TRIPOS>ATOM
      1 C1         -6.3983    2.6574   53.1572 C.3     1  ZINC000550782577    0.0700
      2 N2         -7.0324    2.3074   51.8838 N.am    1  ZINC000550782577   -0.5900
      3 C3         -6.4022    2.5713   50.7221 C.2     1  ZINC000550782577    0.5800
      4 O4         -6.9283    2.2810   49.6656 O.2     1  ZINC000550782577   -0.5400
      5 C5         -5.0700    3.2144   50.7329 C.ar    1  ZINC000550782577    0.0300
      6 C6         -3.9474    2.4821   50.3490 C.ar    1  ZINC000550782577   -0.0600
      7 C7         -2.7066    3.0942   50.3631 C.ar    1  ZINC000550782577   -0.1200
      8 C8         -2.6285    4.4253   50.7627 C.ar    1  ZINC000550782577    0.1100
      9 O9         -1.4315    5.0644   50.7910 O.3     1  ZINC000550782577   -0.3000
     10 C10        -0.5118    4.6746   51.8129 C.3     1  ZINC000550782577    0.1000
     11 C11        -1.2252    3.7765   52.8253 C.3     1  ZINC000550782577   -0.2000
     12 C12         0.6543    3.9090   51.1845 C.3     1  ZINC000550782577   -0.1400
     13 C13         0.0201    5.9213   52.5228 C.3     1  ZINC000550782577   -0.2000
     14 C14        -3.7929    5.0937   51.1329 C.ar    1  ZINC000550782577   -0.0100
     15 N15        -4.9564    4.4849   51.1031 N.ar    1  ZINC000550782577   -0.4100
     16 C16        -8.3518    1.6705   51.8731 C.3     1  ZINC000550782577    0.1400
     17 H17        -8.6282    1.4164   50.8499 H       1  ZINC000550782577    0.1100
     18 C18        -8.3184    0.3996   52.7299 C.3     1  ZINC000550782577   -0.1300
     19 C19        -9.6221   -0.3649   52.5089 C.3     1  ZINC000550782577   -0.0800
     20 C20       -10.8078    0.5440   52.7005 C.ar    1  ZINC000550782577   -0.0800
     21 C21       -12.0470   -0.0456   52.9123 C.ar    1  ZINC000550782577   -0.1200
     22 C22       -13.1727    0.7324   53.0891 C.ar    1  ZINC000550782577   -0.1200
     23 C23       -13.0671    2.1102   53.0543 C.ar    1  ZINC000550782577   -0.1200
     24 C24       -11.8363    2.6980   52.8463 C.ar    1  ZINC000550782577   -0.1200
     25 C25       -10.7016    1.9167   52.6718 C.ar    1  ZINC000550782577   -0.0700
     26 C26        -9.3880    2.6244   52.4641 C.3     1  ZINC000550782577   -0.0900
     27 H27        -6.5929    3.7056   53.3841 H       1  ZINC000550782577    0.0600
     28 H28        -6.8071    2.0319   53.9507 H       1  ZINC000550782577    0.0600
     29 H29        -5.3229    2.4951   53.0844 H       1  ZINC000550782577    0.1100
     30 H30        -4.0449    1.4504   50.0448 H       1  ZINC000550782577    0.1600
     31 H31        -1.8194    2.5519   50.0713 H       1  ZINC000550782577    0.1500
     32 H32        -1.2347    2.7505   52.4575 H       1  ZINC000550782577    0.0700
     33 H33        -0.6995    3.8155   53.7794 H       1  ZINC000550782577    0.0800
     34 H34        -2.2496    4.1235   52.9606 H       1  ZINC000550782577    0.0800
     35 H35         1.1625    4.5489   50.4631 H       1  ZINC000550782577    0.0700
     36 H36         1.3557    3.6116   51.9640 H       1  ZINC000550782577    0.0800
     37 H37         0.2753    3.0209   50.6787 H       1  ZINC000550782577    0.0700
     38 H38        -0.8101    6.4642   52.9744 H       1  ZINC000550782577    0.0800
     39 H39         0.7251    5.6241   53.2992 H       1  ZINC000550782577    0.0800
     40 H40         0.5242    6.5634   51.8006 H       1  ZINC000550782577    0.0700
     41 H41        -3.7391    6.1265   51.4440 H       1  ZINC000550782577    0.1900
     42 H42        -7.4736   -0.2217   52.4323 H       1  ZINC000550782577    0.0700
     43 H43        -8.2243    0.6684   53.7820 H       1  ZINC000550782577    0.0700
     44 H44        -9.6363   -0.7657   51.4954 H       1  ZINC000550782577    0.0800
     45 H45        -9.6812   -1.1880   53.2211 H       1  ZINC000550782577    0.0800
     46 H46       -12.1305   -1.1221   52.9387 H       1  ZINC000550782577    0.1200
     47 H47       -14.1330    0.2666   53.2537 H       1  ZINC000550782577    0.1200
     48 H48       -13.9451    2.7245   53.1892 H       1  ZINC000550782577    0.1200
     49 H49       -11.7547    3.7746   52.8189 H       1  ZINC000550782577    0.1200
     50 H50        -9.0262    2.9991   53.4215 H       1  ZINC000550782577    0.0800
     51 H51        -9.5351    3.4627   51.7831 H       1  ZINC000550782577    0.0800
@<TRIPOS>BOND
     1     1     2    1
     2     1    27    1
     3     1    28    1
     4     1    29    1
     5     2     3   am
     6     2    16    1
     7     3     4    2
     8     3     5    1
     9     5    15   ar
    10     5     6   ar
    11     6     7   ar
    12     6    30    1
    13     7     8   ar
    14     7    31    1
    15     8     9    1
    16     8    14   ar
    17     9    10    1
    18    10    11    1
    19    10    12    1
    20    10    13    1
    21    11    32    1
    22    11    33    1
    23    11    34    1
    24    12    35    1
    25    12    36    1
    26    12    37    1
    27    13    38    1
    28    13    39    1
    29    13    40    1
    30    14    15   ar
    31    14    41    1
    32    16    17    1
    33    16    26    1
    34    16    18    1
    35    18    19    1
    36    18    42    1
    37    18    43    1
    38    19    20    1
    39    19    44    1
    40    19    45    1
    41    20    25   ar
    42    20    21   ar
    43    21    22   ar
    44    21    46    1
    45    22    23   ar
    46    22    47    1
    47    23    24   ar
    48    23    48    1
    49    24    25   ar
    50    24    49    1
    51    25    26    1
    52    26    50    1
    53    26    51    1
@<TRIPOS>SUBSTRUCTURE
     1 ZINC000550782577        1 TEMP              0 ****  ****    0 ROOT


##########                                Name:    ZINC000176150038
##########                DOCK_Rotatable_Bonds:                   4
##########                         Heavy_Atoms:                  23
##########                    Molecular_Weight:             333.712
##########                DOCK_Rotatable_Bonds:                   4
##########                       Formal_Charge:        -2.23517e-07
##########                     HBond_Acceptors:                  10
##########                        HBond_Donors:                   1
##########                         Heavy_Atoms:                  23
##########                          Grid_Score:          -24.258137
##########                     Grid_vdw_energy:          -23.239365
##########                      Grid_es_energy:           -1.018773
##########           Internal_energy_repulsive:            6.222246

@<TRIPOS>MOLECULE
ZINC000176150038
 32 34 1 0 0
SMALL
USER_CHARGES


@<TRIPOS>ATOM
      1 C1        -10.0643    3.2265   60.0693 C.3     1  ZINC000176150038   -0.0900
      2 C2         -9.1268    2.6945   59.0161 C.2     1  ZINC000176150038    0.2600
      3 N3         -8.3112    3.3998   58.2767 N.2     1  ZINC000176150038   -0.3300
      4 N4         -7.6518    2.6398   57.4786 N.2     1  ZINC000176150038   -0.0300
      5 N5         -7.9958    1.4089   57.6499 N.2     1  ZINC000176150038   -0.0700
      6 N6         -8.9688    1.4000   58.6648 N.pl3   1  ZINC000176150038   -0.3300
      7 C7         -9.6382    0.2860   59.1937 C.ar    1  ZINC000176150038    0.1400
      8 C8         -9.2682   -0.2233   60.4309 C.ar    1  ZINC000176150038   -0.1000
      9 C9         -9.9266   -1.3204   60.9537 C.ar    1  ZINC000176150038   -0.1100
     10 C10       -10.9558   -1.9140   60.2462 C.ar    1  ZINC000176150038    0.1000
     11 F11       -11.5980   -2.9860   60.7599 F       1  ZINC000176150038   -0.1200
     12 C12       -11.3305   -1.4073   59.0056 C.ar    1  ZINC000176150038    0.1300
     13 N13       -12.3720   -2.0075   58.2891 N.am    1  ZINC000176150038   -0.6500
     14 C14       -12.1702   -3.1858   57.6670 C.2     1  ZINC000176150038    0.5700
     15 O15       -11.0841   -3.7272   57.7284 O.2     1  ZINC000176150038   -0.4800
     16 C16       -13.2740   -3.8221   56.9075 C.ar    1  ZINC000176150038    0.1400
     17 N17       -13.6298   -5.0805   57.1568 N.ar    1  ZINC000176150038   -0.4800
     18 C18       -14.6085   -5.6481   56.4857 C.ar    1  ZINC000176150038    0.3000
     19 N19       -15.2753   -5.0060   55.5462 N.ar    1  ZINC000176150038   -0.4800
     20 C20       -14.9843   -3.7541   55.2379 C.ar    1  ZINC000176150038    0.1700
     21 C21       -13.9618   -3.1092   55.9225 C.ar    1  ZINC000176150038   -0.1000
     22 Cl22      -13.5418   -1.4653   55.5551 Cl      1  ZINC000176150038    0.0100
     23 C23       -10.6738   -0.3032   58.4827 C.ar    1  ZINC000176150038   -0.0800
     24 H24        -9.5526    3.2526   61.0314 H       1  ZINC000176150038    0.1100
     25 H25       -10.3807    4.2338   59.7986 H       1  ZINC000176150038    0.1100
     26 H26       -10.9375    2.5779   60.1395 H       1  ZINC000176150038    0.0900
     27 H27        -8.4645    0.2380   60.9855 H       1  ZINC000176150038    0.1500
     28 H28        -9.6365   -1.7149   61.9164 H       1  ZINC000176150038    0.1600
     29 H29       -13.2390   -1.5754   58.2402 H       1  ZINC000176150038    0.4300
     30 H30       -14.8737   -6.6706   56.7106 H       1  ZINC000176150038    0.2200
     31 H31       -15.5368   -3.2379   54.4667 H       1  ZINC000176150038    0.1900
     32 H32       -10.9626    0.0922   57.5201 H       1  ZINC000176150038    0.1700
@<TRIPOS>BOND
     1     1     2    1
     2     1    24    1
     3     1    25    1
     4     1    26    1
     5     2     6    1
     6     2     3    2
     7     3     4    1
     8     4     5    2
     9     5     6    1
    10     6     7    1
    11     7    23   ar
    12     7     8   ar
    13     8     9   ar
    14     8    27    1
    15     9    10   ar
    16     9    28    1
    17    10    11    1
    18    10    12   ar
    19    12    13    1
    20    12    23   ar
    21    13    14   am
    22    13    29    1
    23    14    15    2
    24    14    16    1
    25    16    21   ar
    26    16    17   ar
    27    17    18   ar
    28    18    19   ar
    29    18    30    1
    30    19    20   ar
    31    20    21   ar
    32    20    31    1
    33    21    22    1
    34    23    32    1
@<TRIPOS>SUBSTRUCTURE
     1 ZINC000176150038        1 TEMP              0 ****  ****    0 ROOT


##########                                Name:    ZINC000154446008
##########                DOCK_Rotatable_Bonds:                   5
##########                         Heavy_Atoms:                  24
##########                    Molecular_Weight:              349.41
##########                DOCK_Rotatable_Bonds:                   5
##########                       Formal_Charge:          -0.0199999
##########                     HBond_Acceptors:                   8
##########                        HBond_Donors:                   0
##########                         Heavy_Atoms:                  24
##########                          Grid_Score:          -24.220493
##########                     Grid_vdw_energy:          -23.604540
##########                      Grid_es_energy:           -0.615953
##########           Internal_energy_repulsive:           14.934897

@<TRIPOS>MOLECULE
ZINC000154446008
 43 45 1 0 0
SMALL
USER_CHARGES


@<TRIPOS>ATOM
      1 O1        -12.5312    2.3999   51.8802 O.2     1  ZINC000154446008   -0.5000
      2 C2        -11.4452    1.9326   52.1690 C.2     1  ZINC000154446008    0.5900
      3 C3        -11.3632    0.7290   53.0016 C.2     1  ZINC000154446008   -0.2300
      4 C4        -10.9893    0.6980   54.3156 C.2     1  ZINC000154446008   -0.0600
      5 C5        -11.0003   -0.5667   54.8544 C.2     1  ZINC000154446008   -0.0500
      6 C6        -11.3701   -1.5390   54.0127 C.2     1  ZINC000154446008   -0.2100
      7 N7        -11.4549   -2.9725   54.3722 N.pl3   1  ZINC000154446008    0.0500
      8 O8        -11.2760   -3.3228   55.5250 O.2     1  ZINC000154446008   -0.1300
      9 O9        -11.7035   -3.8016   53.5153 O.2     1  ZINC000154446008   -0.1500
     10 S10       -11.7377   -0.9052   52.4718 S.3     1  ZINC000154446008    0.3500
     11 N11       -10.3182    2.5185   51.7186 N.am    1  ZINC000154446008   -0.6100
     12 C12       -10.3852    3.7291   50.8880 C.3     1  ZINC000154446008    0.0800
     13 C13        -9.5394    4.8244   51.5491 C.3     1  ZINC000154446008    0.0900
     14 N14        -8.2215    4.2646   51.8802 N.am    1  ZINC000154446008   -0.6100
     15 C15        -7.0944    4.8511   51.4304 C.2     1  ZINC000154446008    0.5500
     16 O16        -7.1624    5.8529   50.7443 O.2     1  ZINC000154446008   -0.5300
     17 C17        -5.7821    4.2796   51.7697 C.2     1  ZINC000154446008   -0.1500
     18 C18        -5.3439    4.4224   53.0018 C.2     1  ZINC000154446008   -0.1100
     19 C19        -4.0221    3.8993   53.4837 C.3     1  ZINC000154446008   -0.1000
     20 C20        -3.4842    2.8495   52.5089 C.3     1  ZINC000154446008   -0.1200
     21 C21        -3.5505    3.4246   51.0888 C.3     1  ZINC000154446008   -0.1200
     22 C22        -5.0233    3.5621   50.6917 C.3     1  ZINC000154446008   -0.0700
     23 C23        -8.1545    3.0540   52.7107 C.3     1  ZINC000154446008    0.1000
     24 C24        -9.0001    1.9619   52.0542 C.3     1  ZINC000154446008    0.1000
     25 H25       -10.7126    1.5794   54.8751 H       1  ZINC000154446008    0.1800
     26 H26       -10.7299   -0.7613   55.8817 H       1  ZINC000154446008    0.1800
     27 H27        -9.9923    3.5133   49.8944 H       1  ZINC000154446008    0.0900
     28 H28       -11.4199    4.0627   50.8104 H       1  ZINC000154446008    0.0900
     29 H29        -9.4191    5.6601   50.8597 H       1  ZINC000154446008    0.1100
     30 H30       -10.0309    5.1664   52.4600 H       1  ZINC000154446008    0.0800
     31 H31        -5.9712    4.9467   53.7074 H       1  ZINC000154446008    0.1100
     32 H32        -3.3120    4.7229   53.5555 H       1  ZINC000154446008    0.0900
     33 H33        -4.1493    3.4473   54.4674 H       1  ZINC000154446008    0.0800
     34 H34        -2.4505    2.6122   52.7601 H       1  ZINC000154446008    0.0700
     35 H35        -4.0945    1.9483   52.5680 H       1  ZINC000154446008    0.0700
     36 H36        -3.0692    4.4022   51.0667 H       1  ZINC000154446008    0.0700
     37 H37        -3.0471    2.7497   50.3965 H       1  ZINC000154446008    0.0700
     38 H38        -5.4506    2.5709   50.5398 H       1  ZINC000154446008    0.0800
     39 H39        -5.0961    4.1306   49.7646 H       1  ZINC000154446008    0.0700
     40 H40        -7.1198    2.7204   52.7884 H       1  ZINC000154446008    0.1100
     41 H41        -8.5474    3.2698   53.7043 H       1  ZINC000154446008    0.0800
     42 H42        -9.1195    1.1270   52.7447 H       1  ZINC000154446008    0.1100
     43 H43        -8.5109    1.6188   51.1427 H       1  ZINC000154446008    0.0800
@<TRIPOS>BOND
     1     1     2    2
     2     2     3    1
     3     2    11   am
     4     3    10    1
     5     3     4    2
     6     4     5    1
     7     4    25    1
     8     5     6    2
     9     5    26    1
    10     6     7    1
    11     6    10    1
    12     7     8    2
    13     7     9    2
    14    11    24    1
    15    11    12    1
    16    12    13    1
    17    12    27    1
    18    12    28    1
    19    13    14    1
    20    13    29    1
    21    13    30    1
    22    14    15   am
    23    14    23    1
    24    15    16    2
    25    15    17    1
    26    17    22    1
    27    17    18    2
    28    18    19    1
    29    18    31    1
    30    19    20    1
    31    19    32    1
    32    19    33    1
    33    20    21    1
    34    20    34    1
    35    20    35    1
    36    21    22    1
    37    21    36    1
    38    21    37    1
    39    22    38    1
    40    22    39    1
    41    23    24    1
    42    23    40    1
    43    23    41    1
    44    24    42    1
    45    24    43    1
@<TRIPOS>SUBSTRUCTURE
     1 ZINC000154446008        1 TEMP              0 ****  ****    0 ROOT


##########                                Name:    ZINC001002468398
##########                DOCK_Rotatable_Bonds:                   7
##########                         Heavy_Atoms:                  24
##########                    Molecular_Weight:             341.358
##########                DOCK_Rotatable_Bonds:                   7
##########                       Formal_Charge:           0.0100001
##########                     HBond_Acceptors:                   8
##########                        HBond_Donors:                   0
##########                         Heavy_Atoms:                  24
##########                          Grid_Score:          -24.083885
##########                     Grid_vdw_energy:          -23.122955
##########                      Grid_es_energy:           -0.960931
##########           Internal_energy_repulsive:           16.303549

@<TRIPOS>MOLECULE
ZINC001002468398
 45 47 1 0 0
SMALL
USER_CHARGES


@<TRIPOS>ATOM
      1 C1         -8.6343   -0.3361   62.8590 C.3     1  ZINC001002468398   -0.1400
      2 C2         -9.2329    1.0216   62.4861 C.3     1  ZINC001002468398   -0.0500
      3 C3        -10.7339    0.9586   62.6054 C.2     1  ZINC001002468398    0.0500
      4 C4        -11.5783    0.2288   61.8268 C.2     1  ZINC001002468398   -0.0800
      5 C5        -11.1971   -0.6502   60.7065 C.2     1  ZINC001002468398    0.6000
      6 O6        -11.0415   -1.8417   60.8943 O.2     1  ZINC001002468398   -0.5300
      7 N7        -11.0209   -0.1336   59.4742 N.am    1  ZINC001002468398   -0.6000
      8 C8        -11.2082    1.3017   59.2481 C.3     1  ZINC001002468398    0.0900
      9 C9        -10.6421   -1.0072   58.3610 C.3     1  ZINC001002468398    0.1000
     10 C10       -11.9022   -1.4890   57.6392 C.3     1  ZINC001002468398    0.1300
     11 H11       -12.7021   -0.7590   57.7628 H       1  ZINC001002468398    0.0800
     12 C12       -12.3441   -2.8535   58.2089 C.3     1  ZINC001002468398   -0.1300
     13 C13       -12.8263   -3.6171   56.9473 C.3     1  ZINC001002468398   -0.1300
     14 C14       -11.8338   -3.1036   55.8746 C.3     1  ZINC001002468398    0.1000
     15 N15       -11.6172   -1.6810   56.2097 N.am    1  ZINC001002468398   -0.6100
     16 C16       -11.2226   -0.7224   55.3484 C.2     1  ZINC001002468398    0.5600
     17 O17       -11.0759    0.4176   55.7355 O.2     1  ZINC001002468398   -0.5100
     18 C18       -10.9634   -1.0671   53.9044 C.3     1  ZINC001002468398   -0.2000
     19 H19       -10.7366   -2.1143   53.7045 H       1  ZINC001002468398    0.1500
     20 C20       -10.2629   -0.0155   53.0417 C.3     1  ZINC001002468398   -0.1500
     21 C21       -11.7536   -0.3003   52.8421 C.3     1  ZINC001002468398    0.2300
     22 F22       -12.1294   -0.9966   51.6884 F       1  ZINC001002468398   -0.1500
     23 F23       -12.6612    0.6677   53.2856 F       1  ZINC001002468398   -0.1400
     24 N24       -12.8408    0.4627   62.2774 N.2     1  ZINC001002468398   -0.4600
     25 C25       -12.7746    1.2903   63.2769 C.2     1  ZINC001002468398    0.1700
     26 O26       -11.4920    1.6073   63.5037 O.3     1  ZINC001002468398   -0.2000
     27 H27        -8.9070   -0.5841   63.8848 H       1  ZINC001002468398    0.0600
     28 H28        -9.0206   -1.1009   62.1853 H       1  ZINC001002468398    0.0600
     29 H29        -7.5486   -0.2906   62.7728 H       1  ZINC001002468398    0.0700
     30 H30        -8.8466    1.7864   63.1598 H       1  ZINC001002468398    0.1200
     31 H31        -8.9601    1.2696   61.4604 H       1  ZINC001002468398    0.0900
     32 H32       -10.4722    1.8598   59.8269 H       1  ZINC001002468398    0.0700
     33 H33       -11.0801    1.5223   58.1883 H       1  ZINC001002468398    0.0700
     34 H34       -12.2115    1.5909   59.5607 H       1  ZINC001002468398    0.0700
     35 H35       -10.0127   -0.4547   57.6633 H       1  ZINC001002468398    0.0900
     36 H36       -10.0920   -1.8666   58.7444 H       1  ZINC001002468398    0.0900
     37 H37       -11.5030   -3.3682   58.6733 H       1  ZINC001002468398    0.1000
     38 H38       -13.1610   -2.7282   58.9197 H       1  ZINC001002468398    0.0800
     39 H39       -12.7320   -4.6945   57.0830 H       1  ZINC001002468398    0.0900
     40 H40       -13.8509   -3.3451   56.6938 H       1  ZINC001002468398    0.0800
     41 H41       -10.8953   -3.6550   55.9310 H       1  ZINC001002468398    0.0800
     42 H42       -12.2695   -3.1954   54.8797 H       1  ZINC001002468398    0.0800
     43 H43        -9.9894    0.9258   53.5186 H       1  ZINC001002468398    0.1300
     44 H44        -9.5755   -0.3708   52.2740 H       1  ZINC001002468398    0.1400
     45 H45       -13.6191    1.6607   63.8390 H       1  ZINC001002468398    0.2600
@<TRIPOS>BOND
     1     1     2    1
     2     1    27    1
     3     1    28    1
     4     1    29    1
     5     2     3    1
     6     2    30    1
     7     2    31    1
     8     3    26    1
     9     3     4    2
    10     4     5    1
    11     4    24    1
    12     5     6    2
    13     5     7   am
    14     7     8    1
    15     7     9    1
    16     8    32    1
    17     8    33    1
    18     8    34    1
    19     9    10    1
    20     9    35    1
    21     9    36    1
    22    10    11    1
    23    10    15    1
    24    10    12    1
    25    12    13    1
    26    12    37    1
    27    12    38    1
    28    13    14    1
    29    13    39    1
    30    13    40    1
    31    14    15    1
    32    14    41    1
    33    14    42    1
    34    15    16   am
    35    16    17    2
    36    16    18    1
    37    18    19    1
    38    18    21    1
    39    18    20    1
    40    20    21    1
    41    20    43    1
    42    20    44    1
    43    21    22    1
    44    21    23    1
    45    24    25    2
    46    25    26    1
    47    25    45    1
@<TRIPOS>SUBSTRUCTURE
     1 ZINC001002468398        1 TEMP              0 ****  ****    0 ROOT


##########                                Name:    ZINC000879023512
##########                DOCK_Rotatable_Bonds:                   4
##########                         Heavy_Atoms:                  20
##########                    Molecular_Weight:             346.156
##########                DOCK_Rotatable_Bonds:                   4
##########                       Formal_Charge:        -5.96046e-08
##########                     HBond_Acceptors:                   7
##########                        HBond_Donors:                   1
##########                         Heavy_Atoms:                  20
##########                          Grid_Score:          -24.013014
##########                     Grid_vdw_energy:          -23.331802
##########                      Grid_es_energy:           -0.681211
##########           Internal_energy_repulsive:            2.520696

@<TRIPOS>MOLECULE
ZINC000879023512
 33 34 1 0 0
SMALL
USER_CHARGES


@<TRIPOS>ATOM
      1 O1         -7.1972    2.1897   49.8593 O.2     1  ZINC000879023512   -0.5600
      2 C2         -6.7993    3.2572   50.2842 C.2     1  ZINC000879023512    0.7200
      3 N3         -7.6584    4.2846   50.4355 N.am    1  ZINC000879023512   -0.6800
      4 C4         -9.0074    4.1244   50.0981 C.ar    1  ZINC000879023512    0.1800
      5 C5         -9.5059    4.6955   48.9349 C.ar    1  ZINC000879023512   -0.0900
      6 C6        -10.8376    4.5359   48.6042 C.ar    1  ZINC000879023512   -0.0700
      7 C7        -11.6745    3.8083   49.4313 C.ar    1  ZINC000879023512   -0.0700
      8 Br8       -13.4969    3.5919   48.9755 Br      1  ZINC000879023512    0.0200
      9 C9        -11.1802    3.2380   50.5912 C.ar    1  ZINC000879023512    0.0000
     10 N10       -12.0786    2.4601   51.4737 N.pl3   1  ZINC000879023512    0.0200
     11 O11       -11.6441    1.9580   52.4948 O.2     1  ZINC000879023512   -0.1500
     12 O12       -13.2522    2.3221   51.1788 O.2     1  ZINC000879023512   -0.1300
     13 C13        -9.8484    3.3892   50.9233 C.ar    1  ZINC000879023512   -0.0500
     14 N14        -5.5004    3.4114   50.6090 N.am    1  ZINC000879023512   -0.6300
     15 C15        -4.8904    4.6380   51.1427 C.3     1  ZINC000879023512    0.0900
     16 C16        -3.3862    4.3542   51.3380 C.3     1  ZINC000879023512   -0.1200
     17 C17        -3.1283    3.1671   50.3727 C.3     1  ZINC000879023512   -0.1400
     18 H18        -2.9712    3.5195   49.3533 H       1  ZINC000879023512    0.1000
     19 C19        -1.9439    2.3224   50.8464 C.3     1  ZINC000879023512    0.0700
     20 F20        -0.8096    3.1330   50.9625 F       1  ZINC000879023512   -0.2100
     21 C21        -4.4572    2.3761   50.4941 C.3     1  ZINC000879023512    0.1300
     22 H22        -7.3418    5.1350   50.7782 H       1  ZINC000879023512    0.4200
     23 H23        -8.8531    5.2643   48.2893 H       1  ZINC000879023512    0.1600
     24 H24       -11.2258    4.9799   47.6995 H       1  ZINC000879023512    0.1600
     25 H25        -9.4631    2.9436   51.8285 H       1  ZINC000879023512    0.1800
     26 H26        -5.0244    5.4567   50.4355 H       1  ZINC000879023512    0.0700
     27 H27        -5.3468    4.8932   52.0991 H       1  ZINC000879023512    0.0700
     28 H28        -2.7899    5.2206   51.0516 H       1  ZINC000879023512    0.0900
     29 H29        -3.1787    4.0654   52.3683 H       1  ZINC000879023512    0.0900
     30 H30        -2.1765    1.8821   51.8161 H       1  ZINC000879023512    0.0800
     31 H31        -1.7514    1.5291   50.1241 H       1  ZINC000879023512    0.0800
     32 H32        -4.4428    1.7443   51.3823 H       1  ZINC000879023512    0.0800
     33 H33        -4.6227    1.7731   49.6012 H       1  ZINC000879023512    0.0900
@<TRIPOS>BOND
     1     1     2    2
     2     2     3   am
     3     2    14   am
     4     3     4    1
     5     3    22    1
     6     4    13   ar
     7     4     5   ar
     8     5     6   ar
     9     5    23    1
    10     6     7   ar
    11     6    24    1
    12     7     8    1
    13     7     9   ar
    14     9    10    1
    15     9    13   ar
    16    10    11    2
    17    10    12    2
    18    13    25    1
    19    14    21    1
    20    14    15    1
    21    15    16    1
    22    15    26    1
    23    15    27    1
    24    16    17    1
    25    16    28    1
    26    16    29    1
    27    17    18    1
    28    17    19    1
    29    17    21    1
    30    19    20    1
    31    19    30    1
    32    19    31    1
    33    21    32    1
    34    21    33    1
@<TRIPOS>SUBSTRUCTURE
     1 ZINC000879023512        1 TEMP              0 ****  ****    0 ROOT


##########                                Name:    ZINC001318556452
##########                DOCK_Rotatable_Bonds:                   4
##########                         Heavy_Atoms:                  26
##########                    Molecular_Weight:             368.456
##########                DOCK_Rotatable_Bonds:                   4
##########                       Formal_Charge:          -0.0200005
##########                     HBond_Acceptors:                   6
##########                        HBond_Donors:                   1
##########                         Heavy_Atoms:                  26
##########                          Grid_Score:          -23.824627
##########                     Grid_vdw_energy:          -22.204123
##########                      Grid_es_energy:           -1.620505
##########           Internal_energy_repulsive:           19.262915

@<TRIPOS>MOLECULE
ZINC001318556452
 46 48 1 0 0
SMALL
USER_CHARGES


@<TRIPOS>ATOM
      1 C1         -9.7142    1.3502   58.3161 C.3     1  ZINC001318556452   -0.1300
      2 C2         -9.6867    1.2467   56.8129 C.ar    1  ZINC001318556452   -0.1000
      3 C3         -8.6017    1.7266   56.1066 C.ar    1  ZINC001318556452   -0.0500
      4 C4         -7.4445    2.3547   56.8399 C.3     1  ZINC001318556452   -0.4100
      5 S5         -6.4070    3.2668   55.6642 S.o     1  ZINC001318556452    1.2500
      6 C6         -5.0917    3.9391   56.7168 C.3     1  ZINC001318556452   -0.4900
      7 O7         -7.1560    4.3352   55.1013 O.2     1  ZINC001318556452   -0.8400
      8 C8         -8.5753    1.6311   54.7271 C.ar    1  ZINC001318556452   -0.1200
      9 C9         -9.6351    1.0560   54.0505 C.ar    1  ZINC001318556452   -0.1000
     10 C10       -10.7241    0.5747   54.7507 C.ar    1  ZINC001318556452   -0.1200
     11 C11       -10.7508    0.6631   56.1366 C.ar    1  ZINC001318556452    0.1400
     12 N12       -11.8511    0.1766   56.8484 N.am    1  ZINC001318556452   -0.6600
     13 C13       -11.8563   -1.0951   57.2947 C.2     1  ZINC001318556452    0.5600
     14 O14       -10.9045   -1.8188   57.0785 O.2     1  ZINC001318556452   -0.5000
     15 C15       -13.0233   -1.6111   58.0498 C.2     1  ZINC001318556452   -0.0300
     16 C16       -13.4772   -0.9622   59.1625 C.2     1  ZINC001318556452   -0.1600
     17 C17       -14.6299   -1.4949   59.8849 C.2     1  ZINC001318556452    0.5300
     18 O18       -15.0352   -0.9167   60.8776 O.2     1  ZINC001318556452   -0.5200
     19 N19       -15.2501   -2.6133   59.4705 N.am    1  ZINC001318556452   -0.5200
     20 C20       -16.4034   -3.1148   60.2219 C.3     1  ZINC001318556452    0.0600
     21 C21       -14.8232   -3.2975   58.3525 C.ar    1  ZINC001318556452    0.1800
     22 C22       -15.4797   -4.4541   57.9400 C.ar    1  ZINC001318556452   -0.1700
     23 C23       -15.0424   -5.1282   56.8207 C.ar    1  ZINC001318556452   -0.0600
     24 C24       -13.9516   -4.6656   56.0977 C.ar    1  ZINC001318556452   -0.1500
     25 C25       -13.2925   -3.5330   56.4844 C.ar    1  ZINC001318556452   -0.0600
     26 C26       -13.7220   -2.8298   57.6134 C.ar    1  ZINC001318556452   -0.1100
     27 H27        -9.2630    0.4579   58.7500 H       1  ZINC001318556452    0.0800
     28 H28        -9.1529    2.2303   58.6299 H       1  ZINC001318556452    0.0800
     29 H29       -10.7462    1.4374   58.6556 H       1  ZINC001318556452    0.0700
     30 H30        -7.8237    3.0403   57.5977 H       1  ZINC001318556452    0.1000
     31 H31        -6.8518    1.5754   57.3189 H       1  ZINC001318556452    0.1300
     32 H32        -4.5578    3.1202   57.1989 H       1  ZINC001318556452    0.1100
     33 H33        -4.3970    4.5162   56.1063 H       1  ZINC001318556452    0.1100
     34 H34        -5.5297    4.5851   57.4777 H       1  ZINC001318556452    0.0800
     35 H35        -7.7252    2.0070   54.1771 H       1  ZINC001318556452    0.1200
     36 H36        -9.6116    0.9833   52.9732 H       1  ZINC001318556452    0.1300
     37 H37       -11.5517    0.1260   54.2215 H       1  ZINC001318556452    0.1500
     38 H38       -12.6110    0.7543   57.0212 H       1  ZINC001318556452    0.4100
     39 H39       -12.9877   -0.0627   59.5058 H       1  ZINC001318556452    0.1600
     40 H40       -16.6001   -2.4563   61.0679 H       1  ZINC001318556452    0.1000
     41 H41       -17.2774   -3.1414   59.5712 H       1  ZINC001318556452    0.0800
     42 H42       -16.1907   -4.1201   60.5858 H       1  ZINC001318556452    0.0800
     43 H43       -16.3293   -4.8220   58.4961 H       1  ZINC001318556452    0.1400
     44 H44       -15.5531   -6.0253   56.5030 H       1  ZINC001318556452    0.1300
     45 H45       -13.6208   -5.2056   55.2228 H       1  ZINC001318556452    0.1300
     46 H46       -12.4445   -3.1795   55.9166 H       1  ZINC001318556452    0.1700
@<TRIPOS>BOND
     1     1     2    1
     2     1    27    1
     3     1    28    1
     4     1    29    1
     5     2    11   ar
     6     2     3   ar
     7     3     4    1
     8     3     8   ar
     9     4     5    1
    10     4    30    1
    11     4    31    1
    12     5     6    1
    13     5     7    2
    14     6    32    1
    15     6    33    1
    16     6    34    1
    17     8     9   ar
    18     8    35    1
    19     9    10   ar
    20     9    36    1
    21    10    11   ar
    22    10    37    1
    23    11    12    1
    24    12    13   am
    25    12    38    1
    26    13    14    2
    27    13    15    1
    28    15    26    1
    29    15    16    2
    30    16    17    1
    31    16    39    1
    32    17    18    2
    33    17    19   am
    34    19    20    1
    35    19    21    1
    36    20    40    1
    37    20    41    1
    38    20    42    1
    39    21    26   ar
    40    21    22   ar
    41    22    23   ar
    42    22    43    1
    43    23    24   ar
    44    23    44    1
    45    24    25   ar
    46    24    45    1
    47    25    26   ar
    48    25    46    1
@<TRIPOS>SUBSTRUCTURE
     1 ZINC001318556452        1 TEMP              0 ****  ****    0 ROOT


##########                                Name:    ZINC001039666729
##########                DOCK_Rotatable_Bonds:                   3
##########                         Heavy_Atoms:                  25
##########                    Molecular_Weight:             344.376
##########                DOCK_Rotatable_Bonds:                   3
##########                       Formal_Charge:          -0.0199998
##########                     HBond_Acceptors:                  10
##########                        HBond_Donors:                   2
##########                         Heavy_Atoms:                  25
##########                          Grid_Score:          -23.774603
##########                     Grid_vdw_energy:          -23.426155
##########                      Grid_es_energy:           -0.348447
##########           Internal_energy_repulsive:           22.656809

@<TRIPOS>MOLECULE
ZINC001039666729
 45 47 1 0 0
SMALL
USER_CHARGES


@<TRIPOS>ATOM
      1 C1         -9.9543    2.9889   59.9421 C.3     1  ZINC001039666729   -0.1100
      2 C2        -10.9648    2.2887   59.0704 C.ar    1  ZINC001039666729    0.2200
      3 C3        -11.7818    3.0168   58.2202 C.ar    1  ZINC001039666729   -0.3000
      4 C4        -12.6979    2.3338   57.4355 C.ar    1  ZINC001039666729    0.1900
      5 N5        -12.7648    1.0156   57.5211 N.ar    1  ZINC001039666729   -0.5800
      6 C6        -11.9689    0.3492   58.3446 C.ar    1  ZINC001039666729    0.6000
      7 N7        -12.0653   -1.0301   58.4087 N.pl3   1  ZINC001039666729   -0.5900
      8 C8        -10.9684   -1.9171   58.9035 C.3     1  ZINC001039666729    0.1200
      9 C9        -11.0087   -1.9037   60.4332 C.3     1  ZINC001039666729    0.0900
     10 N10       -12.3081   -2.4705   60.8725 N.am    1  ZINC001039666729   -0.7400
     11 C11       -13.2592   -1.5345   61.1828 C.2     1  ZINC001039666729    0.5200
     12 O12       -13.0165   -0.3498   61.0912 O.2     1  ZINC001039666729   -0.5200
     13 C13       -14.6140   -2.0103   61.6401 C.3     1  ZINC001039666729   -0.1500
     14 C14       -15.6842   -1.5162   60.6647 C.3     1  ZINC001039666729    0.1100
     15 N15       -15.3332   -1.9948   59.3025 N.am    1  ZINC001039666729   -0.6100
     16 C16       -15.7312   -3.1913   58.8266 C.2     1  ZINC001039666729    0.6100
     17 O17       -16.4069   -3.9269   59.5195 O.2     1  ZINC001039666729   -0.5200
     18 C18       -15.3462   -3.6090   57.4621 C.2     1  ZINC001039666729   -0.0400
     19 N19       -15.7128   -3.0492   56.3192 N.2     1  ZINC001039666729   -0.2500
     20 N20       -15.1704   -3.7010   55.3526 N.pl3   1  ZINC001039666729   -0.2300
     21 N21       -14.4559   -4.6738   55.7937 N.2     1  ZINC001039666729   -0.2800
     22 C22       -14.5070   -4.6830   57.1040 C.2     1  ZINC001039666729    0.0400
     23 C23       -14.5088   -1.0488   58.5067 C.3     1  ZINC001039666729    0.1100
     24 C24       -13.2802   -1.7974   57.9966 C.3     1  ZINC001039666729    0.1300
     25 N25       -11.0791    0.9711   59.1038 N.ar    1  ZINC001039666729   -0.5700
     26 H26        -9.0104    3.0780   59.4043 H       1  ZINC001039666729    0.0800
     27 H27       -10.3218    3.9826   60.1981 H       1  ZINC001039666729    0.0800
     28 H28        -9.7997    2.4124   60.8542 H       1  ZINC001039666729    0.0800
     29 H29       -11.7065    4.0930   58.1703 H       1  ZINC001039666729    0.1400
     30 H30       -13.3495    2.8715   56.7627 H       1  ZINC001039666729    0.1600
     31 H31       -11.1225   -2.9328   58.5392 H       1  ZINC001039666729    0.0800
     32 H32       -10.0056   -1.5419   58.5564 H       1  ZINC001039666729    0.0900
     33 H33       -10.1922   -2.5087   60.8271 H       1  ZINC001039666729    0.0800
     34 H34       -10.9143   -0.8794   60.7939 H       1  ZINC001039666729    0.1000
     35 H35       -12.4705   -3.4249   60.9348 H       1  ZINC001039666729    0.4100
     36 H36       -14.6252   -3.0998   61.6704 H       1  ZINC001039666729    0.0800
     37 H37       -14.8202   -1.6171   62.6356 H       1  ZINC001039666729    0.1100
     38 H38       -16.6568   -1.9139   60.9544 H       1  ZINC001039666729    0.1100
     39 H39       -15.7150   -0.4266   60.6745 H       1  ZINC001039666729    0.0900
     40 H40       -15.2859   -3.4868   54.4135 H       1  ZINC001039666729    0.4700
     41 H41       -14.0140   -5.3751   57.7706 H       1  ZINC001039666729    0.2100
     42 H42       -15.0901   -0.6741   57.6642 H       1  ZINC001039666729    0.0800
     43 H43       -14.1950   -0.2161   59.1362 H       1  ZINC001039666729    0.1200
     44 H44       -13.3159   -1.8673   56.9095 H       1  ZINC001039666729    0.0700
     45 H45       -13.2509   -2.7970   58.4305 H       1  ZINC001039666729    0.0900
@<TRIPOS>BOND
     1     1     2    1
     2     1    26    1
     3     1    27    1
     4     1    28    1
     5     2    25   ar
     6     2     3   ar
     7     3     4   ar
     8     3    29    1
     9     4     5   ar
    10     4    30    1
    11     5     6   ar
    12     6     7    1
    13     6    25   ar
    14     7    24    1
    15     7     8    1
    16     8     9    1
    17     8    31    1
    18     8    32    1
    19     9    10    1
    20     9    33    1
    21     9    34    1
    22    10    11   am
    23    10    35    1
    24    11    12    2
    25    11    13    1
    26    13    14    1
    27    13    36    1
    28    13    37    1
    29    14    15    1
    30    14    38    1
    31    14    39    1
    32    15    16   am
    33    15    23    1
    34    16    17    2
    35    16    18    1
    36    18    22    1
    37    18    19    2
    38    19    20    1
    39    20    21    1
    40    20    40    1
    41    21    22    2
    42    22    41    1
    43    23    24    1
    44    23    42    1
    45    23    43    1
    46    24    44    1
    47    24    45    1
@<TRIPOS>SUBSTRUCTURE
     1 ZINC001039666729        1 TEMP              0 ****  ****    0 ROOT


##########                                Name:    ZINC000055987960
##########                DOCK_Rotatable_Bonds:                   6
##########                         Heavy_Atoms:                  28
##########                    Molecular_Weight:             404.868
##########                DOCK_Rotatable_Bonds:                   6
##########                       Formal_Charge:          0.00999941
##########                     HBond_Acceptors:                   7
##########                        HBond_Donors:                   1
##########                         Heavy_Atoms:                  28
##########                          Grid_Score:          -23.720024
##########                     Grid_vdw_energy:          -22.900896
##########                      Grid_es_energy:           -0.819127
##########           Internal_energy_repulsive:           18.542118

@<TRIPOS>MOLECULE
ZINC000055987960
 50 52 1 0 0
SMALL
USER_CHARGES


@<TRIPOS>ATOM
      1 C1          0.6237    4.1011   55.1316 C.3     1  ZINC000055987960   -0.1800
      2 C2          1.1679    3.0305   54.1837 C.3     1  ZINC000055987960    0.0700
      3 H3          1.0459    2.0469   54.6372 H       1  ZINC000055987960    0.1200
      4 C4          0.3997    3.0820   52.8582 C.3     1  ZINC000055987960    0.0800
      5 N5          0.7296    4.3452   52.1793 N.am    1  ZINC000055987960   -0.6100
      6 C6         -0.2406    5.1569   51.7144 C.2     1  ZINC000055987960    0.5700
      7 O7          0.0523    6.1966   51.1563 O.2     1  ZINC000055987960   -0.5300
      8 C8         -1.6587    4.7839   51.8829 C.ar    1  ZINC000055987960   -0.1500
      9 C9         -2.2760    3.9409   50.9548 C.ar    1  ZINC000055987960   -0.0700
     10 C10        -3.5988    3.5945   51.1151 C.ar    1  ZINC000055987960   -0.1500
     11 C11        -4.3209    4.0828   52.1995 C.ar    1  ZINC000055987960    0.1700
     12 N12        -5.6603    3.7297   52.3591 N.am    1  ZINC000055987960   -0.6700
     13 C13        -6.5394    3.9528   51.3622 C.2     1  ZINC000055987960    0.5200
     14 O14        -6.1655    4.4608   50.3263 O.2     1  ZINC000055987960   -0.5000
     15 C15        -7.9871    3.5711   51.5345 C.3     1  ZINC000055987960   -0.1100
     16 C16        -8.0847    2.1013   51.8524 C.ar    1  ZINC000055987960   -0.1000
     17 C17        -7.3840    1.1805   51.0929 C.ar    1  ZINC000055987960    0.1300
     18 F18        -6.6121    1.5989   50.0660 F       1  ZINC000055987960   -0.1300
     19 C19        -7.4743   -0.1699   51.3863 C.ar    1  ZINC000055987960   -0.1500
     20 C20        -8.2635   -0.5974   52.4369 C.ar    1  ZINC000055987960   -0.0700
     21 C21        -8.9634    0.3222   53.1956 C.ar    1  ZINC000055987960   -0.1200
     22 C22        -8.8703    1.6720   52.9071 C.ar    1  ZINC000055987960    0.0000
     23 Cl23       -9.7491    2.8261   53.8608 Cl      1  ZINC000055987960   -0.0500
     24 C24        -3.7093    4.9223   53.1253 C.ar    1  ZINC000055987960   -0.1200
     25 C25        -2.3855    5.2683   52.9738 C.ar    1  ZINC000055987960   -0.0500
     26 C26         2.1501    4.6961   52.0235 C.3     1  ZINC000055987960    0.0600
     27 C27         2.8330    4.5661   53.3898 C.3     1  ZINC000055987960    0.0700
     28 H28         2.4513    5.3343   54.0621 H       1  ZINC000055987960    0.0700
     29 C29         4.3444    4.7368   53.2240 C.3     1  ZINC000055987960   -0.1500
     30 O30         2.5546    3.2731   53.9351 O.3     1  ZINC000055987960   -0.3700
     31 H31         0.7459    5.0845   54.6775 H       1  ZINC000055987960    0.0600
     32 H32        -0.4341    3.9166   55.3194 H       1  ZINC000055987960    0.0700
     33 H33         1.1715    4.0652   56.0732 H       1  ZINC000055987960    0.0700
     34 H34         0.6934    2.2404   52.2308 H       1  ZINC000055987960    0.0800
     35 H35        -0.6719    3.0388   53.0529 H       1  ZINC000055987960    0.1000
     36 H36        -1.7162    3.5617   50.1127 H       1  ZINC000055987960    0.1400
     37 H37        -4.0766    2.9434   50.3981 H       1  ZINC000055987960    0.1300
     38 H38        -5.9594    3.3234   53.1876 H       1  ZINC000055987960    0.4200
     39 H39        -8.4204    4.1490   52.3509 H       1  ZINC000055987960    0.1200
     40 H40        -8.5302    3.7805   50.6130 H       1  ZINC000055987960    0.1200
     41 H41        -6.9280   -0.8889   50.7939 H       1  ZINC000055987960    0.1500
     42 H42        -8.3339   -1.6506   52.6652 H       1  ZINC000055987960    0.1500
     43 H43        -9.5803   -0.0129   54.0162 H       1  ZINC000055987960    0.1400
     44 H44        -4.2728    5.2999   53.9657 H       1  ZINC000055987960    0.1500
     45 H45        -1.9112    5.9200   53.6927 H       1  ZINC000055987960    0.1300
     46 H46         2.6201    4.0171   51.3120 H       1  ZINC000055987960    0.0800
     47 H47         2.2377    5.7218   51.6655 H       1  ZINC000055987960    0.1100
     48 H48         4.5550    5.7208   52.8052 H       1  ZINC000055987960    0.0700
     49 H49         4.8292    4.6442   54.1959 H       1  ZINC000055987960    0.0700
     50 H50         4.7256    3.9671   52.5530 H       1  ZINC000055987960    0.0700
@<TRIPOS>BOND
     1     1     2    1
     2     1    31    1
     3     1    32    1
     4     1    33    1
     5     2     3    1
     6     2    30    1
     7     2     4    1
     8     4     5    1
     9     4    34    1
    10     4    35    1
    11     5     6   am
    12     5    26    1
    13     6     7    2
    14     6     8    1
    15     8    25   ar
    16     8     9   ar
    17     9    10   ar
    18     9    36    1
    19    10    11   ar
    20    10    37    1
    21    11    12    1
    22    11    24   ar
    23    12    13   am
    24    12    38    1
    25    13    14    2
    26    13    15    1
    27    15    16    1
    28    15    39    1
    29    15    40    1
    30    16    22   ar
    31    16    17   ar
    32    17    18    1
    33    17    19   ar
    34    19    20   ar
    35    19    41    1
    36    20    21   ar
    37    20    42    1
    38    21    22   ar
    39    21    43    1
    40    22    23    1
    41    24    25   ar
    42    24    44    1
    43    25    45    1
    44    26    27    1
    45    26    46    1
    46    26    47    1
    47    27    28    1
    48    27    29    1
    49    27    30    1
    50    29    48    1
    51    29    49    1
    52    29    50    1
@<TRIPOS>SUBSTRUCTURE
     1 ZINC000055987960        1 TEMP              0 ****  ****    0 ROOT


##########                                Name:    ZINC000455156110
##########                DOCK_Rotatable_Bonds:                   4
##########                         Heavy_Atoms:                  27
##########                    Molecular_Weight:             370.424
##########                DOCK_Rotatable_Bonds:                   4
##########                       Formal_Charge:           0.0100002
##########                     HBond_Acceptors:                   6
##########                        HBond_Donors:                   1
##########                         Heavy_Atoms:                  27
##########                          Grid_Score:          -23.669508
##########                     Grid_vdw_energy:          -23.740765
##########                      Grid_es_energy:            0.071257
##########           Internal_energy_repulsive:           25.043394

@<TRIPOS>MOLECULE
ZINC000455156110
 50 53 1 0 0
SMALL
USER_CHARGES


@<TRIPOS>ATOM
      1 C1         -4.5663    3.3142   50.0531 C.3     1  ZINC000455156110    0.0300
      2 O2         -5.3323    3.8126   51.1517 O.3     1  ZINC000455156110   -0.3100
      3 C3         -6.4888    3.1592   51.4451 C.ar    1  ZINC000455156110    0.0900
      4 C4         -6.5529    1.7794   51.3318 C.ar    1  ZINC000455156110   -0.1600
      5 C5         -7.7272    1.1147   51.6298 C.ar    1  ZINC000455156110   -0.0800
      6 C6         -7.7957   -0.3856   51.5056 C.3     1  ZINC000455156110   -0.1100
      7 C7         -8.8433    1.8284   52.0437 C.ar    1  ZINC000455156110    0.1500
      8 N8        -10.0337    1.1538   52.3466 N.am    1  ZINC000455156110   -0.6700
      9 C9        -10.2338    0.6637   53.5861 C.2     1  ZINC000455156110    0.7200
     10 O10        -9.3815    0.8069   54.4414 O.2     1  ZINC000455156110   -0.5500
     11 N11       -11.3787    0.0149   53.8775 N.am    1  ZINC000455156110   -0.5600
     12 C12       -11.7126   -0.5550   55.1868 C.3     1  ZINC000455156110    0.1000
     13 C13       -13.1032   -1.1760   55.0069 C.3     1  ZINC000455156110   -0.0200
     14 C14       -13.0506   -2.6785   55.2738 C.3     1  ZINC000455156110   -0.1400
     15 C15       -12.7213   -2.9157   56.7510 C.3     1  ZINC000455156110    0.0600
     16 O16       -13.6925   -2.2552   57.5651 O.3     1  ZINC000455156110   -0.3800
     17 C17       -13.7325   -0.8368   57.3950 C.3     1  ZINC000455156110    0.0600
     18 C18       -14.1060   -0.5094   55.9459 C.3     1  ZINC000455156110   -0.1400
     19 C19       -13.4680   -0.9074   53.5685 C.ar    1  ZINC000455156110   -0.1300
     20 C20       -14.5955   -1.2308   52.8385 C.ar    1  ZINC000455156110   -0.0700
     21 C21       -14.6920   -0.8642   51.5089 C.ar    1  ZINC000455156110   -0.1400
     22 C22       -13.6564   -0.1719   50.9092 C.ar    1  ZINC000455156110   -0.0900
     23 C23       -12.5286    0.1526   51.6329 C.ar    1  ZINC000455156110   -0.1300
     24 C24       -12.4257   -0.2086   52.9770 C.ar    1  ZINC000455156110    0.1600
     25 C25        -8.7801    3.2108   52.1581 C.ar    1  ZINC000455156110   -0.1200
     26 C26        -7.6038    3.8747   51.8641 C.ar    1  ZINC000455156110    0.0900
     27 F27        -7.5409    5.2197   51.9755 F       1  ZINC000455156110   -0.1300
     28 H28        -3.6718    3.9242   49.9275 H       1  ZINC000455156110    0.1000
     29 H29        -4.2776    2.2819   50.2503 H       1  ZINC000455156110    0.0600
     30 H30        -5.1656    3.3565   49.1436 H       1  ZINC000455156110    0.0600
     31 H31        -5.6847    1.2234   51.0101 H       1  ZINC000455156110    0.1400
     32 H32        -7.5106   -0.8421   52.4535 H       1  ZINC000455156110    0.0800
     33 H33        -8.8130   -0.6830   51.2506 H       1  ZINC000455156110    0.0600
     34 H34        -7.1133   -0.7170   50.7230 H       1  ZINC000455156110    0.0800
     35 H35       -10.7136    1.0396   51.6643 H       1  ZINC000455156110    0.4100
     36 H36       -10.9883   -1.3216   55.4621 H       1  ZINC000455156110    0.0800
     37 H37       -11.7428    0.2282   55.9442 H       1  ZINC000455156110    0.0900
     38 H38       -14.0176   -3.1240   55.0402 H       1  ZINC000455156110    0.0800
     39 H39       -12.2796   -3.1323   54.6512 H       1  ZINC000455156110    0.0800
     40 H40       -12.7383   -3.9853   56.9601 H       1  ZINC000455156110    0.1000
     41 H41       -11.7308   -2.5174   56.9711 H       1  ZINC000455156110    0.0500
     42 H42       -14.4769   -0.4107   58.0676 H       1  ZINC000455156110    0.1000
     43 H43       -12.7531   -0.4155   57.6222 H       1  ZINC000455156110    0.0500
     44 H44       -14.0811    0.5703   55.7984 H       1  ZINC000455156110    0.0800
     45 H45       -15.1075   -0.8839   55.7344 H       1  ZINC000455156110    0.0800
     46 H46       -15.4037   -1.7720   53.3078 H       1  ZINC000455156110    0.1300
     47 H47       -15.5741   -1.1183   50.9401 H       1  ZINC000455156110    0.1300
     48 H48       -13.7308    0.1152   49.8707 H       1  ZINC000455156110    0.1300
     49 H49       -11.7227    0.6931   51.1586 H       1  ZINC000455156110    0.1400
     50 H50        -9.6482    3.7667   52.4801 H       1  ZINC000455156110    0.1700
@<TRIPOS>BOND
     1     1     2    1
     2     1    28    1
     3     1    29    1
     4     1    30    1
     5     2     3    1
     6     3    26   ar
     7     3     4   ar
     8     4     5   ar
     9     4    31    1
    10     5     6    1
    11     5     7   ar
    12     6    32    1
    13     6    33    1
    14     6    34    1
    15     7     8    1
    16     7    25   ar
    17     8     9   am
    18     8    35    1
    19     9    10    2
    20     9    11   am
    21    11    24    1
    22    11    12    1
    23    12    13    1
    24    12    36    1
    25    12    37    1
    26    13    18    1
    27    13    14    1
    28    13    19    1
    29    14    15    1
    30    14    38    1
    31    14    39    1
    32    15    16    1
    33    15    40    1
    34    15    41    1
    35    16    17    1
    36    17    18    1
    37    17    42    1
    38    17    43    1
    39    18    44    1
    40    18    45    1
    41    19    24   ar
    42    19    20   ar
    43    20    21   ar
    44    20    46    1
    45    21    22   ar
    46    21    47    1
    47    22    23   ar
    48    22    48    1
    49    23    24   ar
    50    23    49    1
    51    25    26   ar
    52    25    50    1
    53    26    27    1
@<TRIPOS>SUBSTRUCTURE
     1 ZINC000455156110        1 TEMP              0 ****  ****    0 ROOT


##########                                Name:    ZINC001135312623
##########                DOCK_Rotatable_Bonds:                   3
##########                         Heavy_Atoms:                  25
##########                    Molecular_Weight:             341.323
##########                DOCK_Rotatable_Bonds:                   3
##########                       Formal_Charge:        -1.78814e-07
##########                     HBond_Acceptors:                   8
##########                        HBond_Donors:                   2
##########                         Heavy_Atoms:                  25
##########                          Grid_Score:          -23.629887
##########                     Grid_vdw_energy:          -23.497849
##########                      Grid_es_energy:           -0.132039
##########           Internal_energy_repulsive:            4.417096

@<TRIPOS>MOLECULE
ZINC001135312623
 40 42 1 0 0
SMALL
USER_CHARGES


@<TRIPOS>ATOM
      1 C1         -6.9149    4.6777   54.0975 C.3     1  ZINC001135312623   -0.1300
      2 C2         -5.8444    4.0766   53.2236 C.ar    1  ZINC001135312623   -0.0600
      3 C3         -4.7380    4.8244   52.8726 C.ar    1  ZINC001135312623   -0.1000
      4 C4         -3.7553    4.2737   52.0701 C.ar    1  ZINC001135312623   -0.0300
      5 C5         -2.5492    5.0928   51.6889 C.3     1  ZINC001135312623   -0.1300
      6 C6         -3.8769    2.9729   51.6173 C.ar    1  ZINC001135312623   -0.0200
      7 N7         -2.8229    2.3874   50.7588 N.pl3   1  ZINC001135312623    0.0200
      8 O8         -3.1231    1.6101   49.8704 O.2     1  ZINC001135312623   -0.1500
      9 O9         -1.6554    2.6829   50.9406 O.2     1  ZINC001135312623   -0.1500
     10 C10        -4.9807    2.2191   51.9656 C.ar    1  ZINC001135312623   -0.0700
     11 C11        -5.9669    2.7675   52.7751 C.ar    1  ZINC001135312623    0.1500
     12 N12        -7.0857    2.0071   53.1297 N.am    1  ZINC001135312623   -0.6600
     13 C13        -7.9310    1.5671   52.1765 C.2     1  ZINC001135312623    0.5600
     14 O14        -7.7207    1.8313   51.0084 O.2     1  ZINC001135312623   -0.5000
     15 C15        -9.1115    0.7647   52.5506 C.ar    1  ZINC001135312623   -0.1600
     16 C16        -9.2137   -0.5656   52.1352 C.ar    1  ZINC001135312623   -0.0400
     17 C17       -10.3165   -1.3140   52.4842 C.ar    1  ZINC001135312623   -0.1500
     18 C18       -11.3261   -0.7450   53.2497 C.ar    1  ZINC001135312623    0.2000
     19 N19       -12.4527   -1.4839   53.6115 N.am    1  ZINC001135312623   -0.6700
     20 C20       -13.5489   -0.8477   54.0707 C.2     1  ZINC001135312623    0.6600
     21 O21       -14.5206   -1.4943   54.4086 O.2     1  ZINC001135312623   -0.4900
     22 O22       -13.5802    0.4942   54.1597 O.3     1  ZINC001135312623   -0.3400
     23 C23       -12.3379    1.1695   54.4988 C.3     1  ZINC001135312623    0.1100
     24 C24       -11.2256    0.5815   53.6667 C.ar    1  ZINC001135312623   -0.1800
     25 C25       -10.1274    1.3328   53.3265 C.ar    1  ZINC001135312623    0.0000
     26 H26        -6.6772    4.4897   55.1445 H       1  ZINC001135312623    0.0900
     27 H27        -6.9648    5.7527   53.9236 H       1  ZINC001135312623    0.0800
     28 H28        -7.8770    4.2257   53.8565 H       1  ZINC001135312623    0.0700
     29 H29        -4.6400    5.8407   53.2246 H       1  ZINC001135312623    0.1500
     30 H30        -1.7974    5.0199   52.4747 H       1  ZINC001135312623    0.0900
     31 H31        -2.1351    4.7161   50.7537 H       1  ZINC001135312623    0.0800
     32 H32        -2.8429    6.1349   51.5626 H       1  ZINC001135312623    0.0800
     33 H33        -5.0751    1.2032   51.6115 H       1  ZINC001135312623    0.1700
     34 H34        -7.2535    1.7964   54.0615 H       1  ZINC001135312623    0.4200
     35 H35        -8.4280   -1.0073   51.5400 H       1  ZINC001135312623    0.1400
     36 H36       -10.3959   -2.3419   52.1627 H       1  ZINC001135312623    0.1500
     37 H37       -12.4473   -2.4506   53.5327 H       1  ZINC001135312623    0.4300
     38 H38       -12.4306    2.2344   54.2854 H       1  ZINC001135312623    0.1300
     39 H39       -12.1195    1.0238   55.5568 H       1  ZINC001135312623    0.1000
     40 H40       -10.0503    2.3593   53.6535 H       1  ZINC001135312623    0.1500
@<TRIPOS>BOND
     1     1     2    1
     2     1    26    1
     3     1    27    1
     4     1    28    1
     5     2    11   ar
     6     2     3   ar
     7     3     4   ar
     8     3    29    1
     9     4     5    1
    10     4     6   ar
    11     5    30    1
    12     5    31    1
    13     5    32    1
    14     6     7    1
    15     6    10   ar
    16     7     8    2
    17     7     9    2
    18    10    11   ar
    19    10    33    1
    20    11    12    1
    21    12    13   am
    22    12    34    1
    23    13    14    2
    24    13    15    1
    25    15    25   ar
    26    15    16   ar
    27    16    17   ar
    28    16    35    1
    29    17    18   ar
    30    17    36    1
    31    18    24   ar
    32    18    19    1
    33    19    20   am
    34    19    37    1
    35    20    21    2
    36    20    22    1
    37    22    23    1
    38    23    24    1
    39    23    38    1
    40    23    39    1
    41    24    25   ar
    42    25    40    1
@<TRIPOS>SUBSTRUCTURE
     1 ZINC001135312623        1 TEMP              0 ****  ****    0 ROOT


##########                                Name:    ZINC000648570180
##########                DOCK_Rotatable_Bonds:                   4
##########                         Heavy_Atoms:                  25
##########                    Molecular_Weight:             342.484
##########                DOCK_Rotatable_Bonds:                   4
##########                       Formal_Charge:          0.00999971
##########                     HBond_Acceptors:                   5
##########                        HBond_Donors:                   0
##########                         Heavy_Atoms:                  25
##########                          Grid_Score:          -23.557571
##########                     Grid_vdw_energy:          -24.067984
##########                      Grid_es_energy:            0.510413
##########           Internal_energy_repulsive:           88.734497

@<TRIPOS>MOLECULE
ZINC000648570180
 55 58 1 0 0
SMALL
USER_CHARGES


@<TRIPOS>ATOM
      1 C1        -14.9364   -2.9997   60.1552 C.3     1  ZINC000648570180   -0.1500
      2 C2        -15.5372   -1.5975   60.2729 C.3     1  ZINC000648570180   -0.0600
      3 C3        -16.3905   -1.2884   59.0411 C.3     1  ZINC000648570180   -0.1400
      4 C4        -16.3955   -1.4959   61.5507 C.3     1  ZINC000648570180   -0.1200
      5 C5        -16.1373   -0.0590   62.0683 C.3     1  ZINC000648570180   -0.1300
      6 C6        -14.6312    0.1462   61.7704 C.3     1  ZINC000648570180   -0.1200
      7 C7        -14.4155   -0.5535   60.4126 C.3     1  ZINC000648570180   -0.0700
      8 H8        -14.4796    0.1739   59.6033 H       1  ZINC000648570180    0.0800
      9 C9        -13.0501   -1.2434   60.3895 C.3     1  ZINC000648570180   -0.1000
     10 H10       -13.0752   -2.1738   60.9570 H       1  ZINC000648570180    0.1000
     11 C11       -12.5775   -1.4931   58.9329 C.3     1  ZINC000648570180   -0.1400
     12 C12       -11.0404   -1.5188   59.0678 C.3     1  ZINC000648570180    0.1200
     13 N13       -10.6982   -0.7931   60.2998 N.am    1  ZINC000648570180   -0.6000
     14 C14        -9.4536   -0.6089   60.7830 C.2     1  ZINC000648570180    0.5800
     15 O15        -8.4971   -1.0608   60.1858 O.2     1  ZINC000648570180   -0.5200
     16 C16        -9.2515    0.1464   62.0451 C.ar    1  ZINC000648570180    0.1600
     17 C17        -8.1852   -0.1597   62.8902 C.ar    1  ZINC000648570180   -0.2000
     18 C18        -8.0367    0.5743   64.0592 C.ar    1  ZINC000648570180    0.1800
     19 N19        -8.9031    1.5331   64.3335 N.ar    1  ZINC000648570180   -0.5400
     20 C20        -9.9072    1.8012   63.5103 C.ar    1  ZINC000648570180    0.4800
     21 N21       -10.7931    2.8141   63.8350 N.3     1  ZINC000648570180   -0.4400
     22 C22       -10.9467    3.7688   62.7075 C.3     1  ZINC000648570180    0.0500
     23 C23       -12.2925    4.4709   63.0184 C.3     1  ZINC000648570180   -0.1200
     24 C24       -13.1547    3.3251   63.5964 C.3     1  ZINC000648570180   -0.1300
     25 C25       -12.1454    2.2732   64.0925 C.3     1  ZINC000648570180    0.0400
     26 N26       -10.0818    1.1294   62.3843 N.ar    1  ZINC000648570180   -0.5000
     27 C27       -11.9420   -0.2996   60.9196 C.3     1  ZINC000648570180    0.1100
     28 H28       -14.2445   -3.1690   60.9802 H       1  ZINC000648570180    0.0600
     29 H29       -15.7345   -3.7412   60.1925 H       1  ZINC000648570180    0.0500
     30 H30       -14.4023   -3.0879   59.2091 H       1  ZINC000648570180    0.0700
     31 H31       -17.1890   -2.0257   58.9579 H       1  ZINC000648570180    0.0500
     32 H32       -16.8239   -0.2931   59.1400 H       1  ZINC000648570180    0.0500
     33 H33       -15.7667   -1.3260   58.1482 H       1  ZINC000648570180    0.0500
     34 H34       -17.4506   -1.6321   61.3134 H       1  ZINC000648570180    0.0600
     35 H35       -16.0712   -2.2308   62.2875 H       1  ZINC000648570180    0.0700
     36 H36       -16.7416    0.6636   61.5199 H       1  ZINC000648570180    0.0700
     37 H37       -16.3317    0.0066   63.1389 H       1  ZINC000648570180    0.0700
     38 H38       -14.3989    1.2083   61.6934 H       1  ZINC000648570180    0.0700
     39 H39       -14.0221   -0.3236   62.5426 H       1  ZINC000648570180    0.0700
     40 H40       -12.9485   -2.4500   58.5658 H       1  ZINC000648570180    0.0900
     41 H41       -12.8939   -0.6795   58.2802 H       1  ZINC000648570180    0.0800
     42 H42       -10.6914   -2.5491   59.1354 H       1  ZINC000648570180    0.0800
     43 H43       -10.5847   -1.0263   58.2088 H       1  ZINC000648570180    0.0700
     44 H44        -7.4916   -0.9493   62.6414 H       1  ZINC000648570180    0.1600
     45 H45        -7.2224    0.3637   64.7366 H       1  ZINC000648570180    0.1800
     46 H46       -10.1293    4.4899   62.7000 H       1  ZINC000648570180    0.1000
     47 H47       -11.0006    3.2368   61.7577 H       1  ZINC000648570180    0.0500
     48 H48       -12.1542    5.2601   63.7573 H       1  ZINC000648570180    0.0800
     49 H49       -12.7397    4.8681   62.1072 H       1  ZINC000648570180    0.0800
     50 H50       -13.7604    3.6892   64.4263 H       1  ZINC000648570180    0.0800
     51 H51       -13.7913    2.9018   62.8195 H       1  ZINC000648570180    0.0700
     52 H52       -12.2824    1.3403   63.5458 H       1  ZINC000648570180    0.0900
     53 H53       -12.2804    2.1040   65.1608 H       1  ZINC000648570180    0.0900
     54 H54       -12.1388    0.7268   60.6099 H       1  ZINC000648570180    0.0700
     55 H55       -11.8758   -0.3628   62.0056 H       1  ZINC000648570180    0.0800
@<TRIPOS>BOND
     1     1     2    1
     2     1    28    1
     3     1    29    1
     4     1    30    1
     5     2     7    1
     6     2     3    1
     7     2     4    1
     8     3    31    1
     9     3    32    1
    10     3    33    1
    11     4     5    1
    12     4    34    1
    13     4    35    1
    14     5     6    1
    15     5    36    1
    16     5    37    1
    17     6     7    1
    18     6    38    1
    19     6    39    1
    20     7     8    1
    21     7     9    1
    22     9    10    1
    23     9    27    1
    24     9    11    1
    25    11    12    1
    26    11    40    1
    27    11    41    1
    28    12    13    1
    29    12    42    1
    30    12    43    1
    31    13    14   am
    32    13    27    1
    33    14    15    2
    34    14    16    1
    35    16    26   ar
    36    16    17   ar
    37    17    18   ar
    38    17    44    1
    39    18    19   ar
    40    18    45    1
    41    19    20   ar
    42    20    21    1
    43    20    26   ar
    44    21    25    1
    45    21    22    1
    46    22    23    1
    47    22    46    1
    48    22    47    1
    49    23    24    1
    50    23    48    1
    51    23    49    1
    52    24    25    1
    53    24    50    1
    54    24    51    1
    55    25    52    1
    56    25    53    1
    57    27    54    1
    58    27    55    1
@<TRIPOS>SUBSTRUCTURE
     1 ZINC000648570180        1 TEMP              0 ****  ****    0 ROOT


##########                                Name:    ZINC001076281847
##########                DOCK_Rotatable_Bonds:                   4
##########                         Heavy_Atoms:                  24
##########                    Molecular_Weight:             362.883
##########                DOCK_Rotatable_Bonds:                   4
##########                       Formal_Charge:         -0.00999959
##########                     HBond_Acceptors:                   7
##########                        HBond_Donors:                   0
##########                         Heavy_Atoms:                  24
##########                          Grid_Score:          -23.367161
##########                     Grid_vdw_energy:          -23.482910
##########                      Grid_es_energy:            0.115750
##########           Internal_energy_repulsive:            9.625419

@<TRIPOS>MOLECULE
ZINC001076281847
 43 46 1 0 0
SMALL
USER_CHARGES


@<TRIPOS>ATOM
      1 C1         -6.7086    3.6922   50.1721 C.3     1  ZINC001076281847   -0.0900
      2 C2         -7.2925    2.9524   51.3481 C.2     1  ZINC001076281847    0.1400
      3 N3         -7.2758    3.4577   52.5466 N.2     1  ZINC001076281847   -0.4600
      4 S4         -8.0195    2.3319   53.5743 S.3     1  ZINC001076281847    0.2500
      5 C5         -8.3490    1.1718   52.3473 C.2     1  ZINC001076281847   -0.2100
      6 C6         -9.0294   -0.1627   52.5127 C.3     1  ZINC001076281847    0.1200
      7 N7        -10.3433   -0.1270   51.8568 N.3     1  ZINC001076281847   -0.5000
      8 C8        -11.0915    1.0804   52.2402 C.3     1  ZINC001076281847    0.0300
      9 C9        -12.5622    0.6563   52.4139 C.3     1  ZINC001076281847   -0.1000
     10 H10       -13.1733    0.8404   51.5304 H       1  ZINC001076281847    0.1200
     11 C11       -13.1136    1.3307   53.6975 C.3     1  ZINC001076281847   -0.1300
     12 C12       -12.4291    0.4992   54.8102 C.3     1  ZINC001076281847    0.1000
     13 N13       -12.4114   -0.8808   54.2926 N.am    1  ZINC001076281847   -0.6000
     14 C14       -12.3559   -1.9992   55.0425 C.2     1  ZINC001076281847    0.5700
     15 O15       -12.3462   -3.0900   54.5069 O.2     1  ZINC001076281847   -0.4900
     16 C16       -12.3065   -1.8989   56.5190 C.ar    1  ZINC001076281847   -0.0800
     17 C17       -11.3096   -1.1536   57.1558 C.ar    1  ZINC001076281847   -0.1800
     18 C18       -11.3013   -1.0865   58.5355 C.ar    1  ZINC001076281847    0.1000
     19 N19       -12.2154   -1.7123   59.2499 N.ar    1  ZINC001076281847   -0.4500
     20 C20       -13.1725   -2.4256   58.6915 C.ar    1  ZINC001076281847    0.1100
     21 C21       -13.2600   -2.5428   57.3161 C.ar    1  ZINC001076281847   -0.0500
     22 Cl22      -14.5251   -3.4844   56.5903 Cl      1  ZINC001076281847   -0.0100
     23 C23       -12.4655   -0.8434   52.8037 C.3     1  ZINC001076281847    0.1000
     24 H24       -13.3091   -1.4197   52.4236 H       1  ZINC001076281847    0.1100
     25 C25       -11.1362   -1.3170   52.1999 C.3     1  ZINC001076281847    0.0200
     26 C26        -7.8740    1.7115   51.2030 C.2     1  ZINC001076281847   -0.1800
     27 H27        -7.4960    4.2529   49.6684 H       1  ZINC001076281847    0.0700
     28 H28        -5.9390    4.3805   50.5215 H       1  ZINC001076281847    0.0800
     29 H29        -6.2686    2.9783   49.4758 H       1  ZINC001076281847    0.0900
     30 H30        -8.4172   -0.9414   52.0579 H       1  ZINC001076281847    0.1000
     31 H31        -9.1587   -0.3755   53.5738 H       1  ZINC001076281847    0.1000
     32 H32       -10.7043    1.4763   53.1791 H       1  ZINC001076281847    0.0600
     33 H33       -11.0108    1.8335   51.4563 H       1  ZINC001076281847    0.0900
     34 H34       -12.8108    2.3764   53.7497 H       1  ZINC001076281847    0.0900
     35 H35       -14.1983    1.2372   53.7521 H       1  ZINC001076281847    0.0800
     36 H36       -11.4124    0.8545   54.9782 H       1  ZINC001076281847    0.0800
     37 H37       -13.0074    0.5511   55.7327 H       1  ZINC001076281847    0.0800
     38 H38       -10.5569   -0.6383   56.5776 H       1  ZINC001076281847    0.1800
     39 H39       -10.5348   -0.5134   59.0360 H       1  ZINC001076281847    0.1700
     40 H40       -13.9007   -2.9218   59.3160 H       1  ZINC001076281847    0.1700
     41 H41       -11.3284   -1.9195   51.3122 H       1  ZINC001076281847    0.1000
     42 H42       -10.5874   -1.9071   52.9340 H       1  ZINC001076281847    0.0700
     43 H43        -7.9389    1.2068   50.2504 H       1  ZINC001076281847    0.1400
@<TRIPOS>BOND
     1     1     2    1
     2     1    27    1
     3     1    28    1
     4     1    29    1
     5     2    26    1
     6     2     3    2
     7     3     4    1
     8     4     5    1
     9     5     6    1
    10     5    26    2
    11     6     7    1
    12     6    30    1
    13     6    31    1
    14     7    25    1
    15     7     8    1
    16     8     9    1
    17     8    32    1
    18     8    33    1
    19     9    10    1
    20     9    23    1
    21     9    11    1
    22    11    12    1
    23    11    34    1
    24    11    35    1
    25    12    13    1
    26    12    36    1
    27    12    37    1
    28    13    14   am
    29    13    23    1
    30    14    15    2
    31    14    16    1
    32    16    21   ar
    33    16    17   ar
    34    17    18   ar
    35    17    38    1
    36    18    19   ar
    37    18    39    1
    38    19    20   ar
    39    20    21   ar
    40    20    40    1
    41    21    22    1
    42    23    24    1
    43    23    25    1
    44    25    41    1
    45    25    42    1
    46    26    43    1
@<TRIPOS>SUBSTRUCTURE
     1 ZINC001076281847        1 TEMP              0 ****  ****    0 ROOT


##########                                Name:    ZINC000541315701
##########                DOCK_Rotatable_Bonds:                   4
##########                         Heavy_Atoms:                  25
##########                    Molecular_Weight:             422.709
##########                DOCK_Rotatable_Bonds:                   4
##########                       Formal_Charge:           0.0300003
##########                     HBond_Acceptors:                   6
##########                        HBond_Donors:                   0
##########                         Heavy_Atoms:                  25
##########                          Grid_Score:          -22.927223
##########                     Grid_vdw_energy:          -20.310230
##########                      Grid_es_energy:           -2.616993
##########           Internal_energy_repulsive:           18.532169

@<TRIPOS>MOLECULE
ZINC000541315701
 42 44 1 0 0
SMALL
USER_CHARGES


@<TRIPOS>ATOM
      1 C1         -9.9536    3.5606   63.2600 C.3     1  ZINC000541315701    0.0800
      2 N2        -10.6605    2.4099   63.8278 N.am    1  ZINC000541315701   -0.5700
      3 C3        -10.5503    1.1982   63.2481 C.2     1  ZINC000541315701    0.5400
      4 O4        -11.1354    0.2457   63.7182 O.2     1  ZINC000541315701   -0.5000
      5 C5         -9.6997    1.0270   62.0159 C.3     1  ZINC000541315701   -0.1100
      6 H6         -8.8794    1.7447   62.0079 H       1  ZINC000541315701    0.1300
      7 C7         -9.1691   -0.4212   61.9067 C.3     1  ZINC000541315701   -0.1500
      8 C8        -10.1898   -1.1259   61.0406 C.2     1  ZINC000541315701    0.5200
      9 O9        -10.3023   -2.3293   60.9391 O.2     1  ZINC000541315701   -0.5200
     10 N10       -10.9540   -0.2245   60.4002 N.am    1  ZINC000541315701   -0.6100
     11 C11       -12.0469   -0.5673   59.4868 C.3     1  ZINC000541315701    0.0900
     12 C12       -10.5530    1.1483   60.7339 C.3     1  ZINC000541315701    0.1900
     13 H13       -11.4331    1.7630   60.9229 H       1  ZINC000541315701    0.1100
     14 C14        -9.7356    1.7395   59.6144 C.ar    1  ZINC000541315701   -0.0900
     15 C15        -8.7082    1.0084   59.0484 C.ar    1  ZINC000541315701   -0.1000
     16 C16        -7.9580    1.5499   58.0209 C.ar    1  ZINC000541315701   -0.1000
     17 C17        -8.2348    2.8228   57.5596 C.ar    1  ZINC000541315701   -0.1000
     18 C18        -9.2632    3.5552   58.1258 C.ar    1  ZINC000541315701   -0.0300
     19 Cl19       -9.6119    5.1541   57.5465 Cl      1  ZINC000541315701   -0.0600
     20 C20       -10.0170    3.0107   59.1500 C.ar    1  ZINC000541315701   -0.0900
     21 C21       -11.4475    2.5684   64.9679 C.ar    1  ZINC000541315701    0.3800
     22 N22       -12.6306    3.1533   64.8718 N.ar    1  ZINC000541315701   -0.4700
     23 C23       -13.4067    3.3227   65.9253 C.ar    1  ZINC000541315701    0.1300
     24 C24       -13.0084    2.8922   67.1752 C.ar    1  ZINC000541315701   -0.1600
     25 C25       -11.7740    2.2735   67.3197 C.ar    1  ZINC000541315701   -0.0400
     26 C26       -10.9843    2.1052   66.1952 C.ar    1  ZINC000541315701   -0.1300
     27 Br27       -9.2933    1.2691   66.3279 Br      1  ZINC000541315701   -0.0200
     28 H28        -9.9151    3.4641   62.1749 H       1  ZINC000541315701    0.0900
     29 H29       -10.4804    4.4775   63.5247 H       1  ZINC000541315701    0.0800
     30 H30        -8.9394    3.5965   63.6578 H       1  ZINC000541315701    0.0700
     31 H31        -8.1895   -0.4336   61.4286 H       1  ZINC000541315701    0.1200
     32 H32        -9.1196   -0.8848   62.8920 H       1  ZINC000541315701    0.1100
     33 H33       -12.1338   -1.6514   59.4149 H       1  ZINC000541315701    0.0900
     34 H34       -12.9809   -0.1522   59.8656 H       1  ZINC000541315701    0.0700
     35 H35       -11.8390   -0.1532   58.5001 H       1  ZINC000541315701    0.0600
     36 H36        -8.4911    0.0138   59.4091 H       1  ZINC000541315701    0.1300
     37 H37        -7.1554    0.9781   57.5790 H       1  ZINC000541315701    0.1400
     38 H38        -7.6483    3.2460   56.7574 H       1  ZINC000541315701    0.1400
     39 H39       -10.8198    3.5819   59.5922 H       1  ZINC000541315701    0.1400
     40 H40       -14.3661    3.8049   65.8084 H       1  ZINC000541315701    0.1700
     41 H41       -13.6504    3.0356   68.0318 H       1  ZINC000541315701    0.1500
     42 H42       -11.4393    1.9277   68.2865 H       1  ZINC000541315701    0.1500
@<TRIPOS>BOND
     1     1     2    1
     2     1    28    1
     3     1    29    1
     4     1    30    1
     5     2     3   am
     6     2    21    1
     7     3     4    2
     8     3     5    1
     9     5     6    1
    10     5    12    1
    11     5     7    1
    12     7     8    1
    13     7    31    1
    14     7    32    1
    15     8     9    2
    16     8    10   am
    17    10    11    1
    18    10    12    1
    19    11    33    1
    20    11    34    1
    21    11    35    1
    22    12    13    1
    23    12    14    1
    24    14    20   ar
    25    14    15   ar
    26    15    16   ar
    27    15    36    1
    28    16    17   ar
    29    16    37    1
    30    17    18   ar
    31    17    38    1
    32    18    19    1
    33    18    20   ar
    34    20    39    1
    35    21    26   ar
    36    21    22   ar
    37    22    23   ar
    38    23    24   ar
    39    23    40    1
    40    24    25   ar
    41    24    41    1
    42    25    26   ar
    43    25    42    1
    44    26    27    1
@<TRIPOS>SUBSTRUCTURE
     1 ZINC000541315701        1 TEMP              0 ****  ****    0 ROOT


##########                                Name:    ZINC001708427409
##########                DOCK_Rotatable_Bonds:                   6
##########                         Heavy_Atoms:                  24
##########                    Molecular_Weight:             334.505
##########                DOCK_Rotatable_Bonds:                   6
##########                       Formal_Charge:          -0.0200006
##########                     HBond_Acceptors:                   5
##########                        HBond_Donors:                   1
##########                         Heavy_Atoms:                  24
##########                          Grid_Score:          -22.792439
##########                     Grid_vdw_energy:          -22.612795
##########                      Grid_es_energy:           -0.179643
##########           Internal_energy_repulsive:           15.465453

@<TRIPOS>MOLECULE
ZINC001708427409
 58 60 1 0 0
SMALL
USER_CHARGES


@<TRIPOS>ATOM
      1 C1         -9.8410    0.2648   62.4709 C.3     1  ZINC001708427409   -0.1500
      2 C2         -9.8182    0.5979   60.9778 C.3     1  ZINC001708427409   -0.1200
      3 C3         -9.9497   -0.6919   60.1655 C.3     1  ZINC001708427409    0.0000
      4 H4        -10.6622   -1.3574   60.6530 H       1  ZINC001708427409    0.0800
      5 C5         -8.5863   -1.3806   60.0778 C.3     1  ZINC001708427409   -0.1400
      6 C6        -10.4370   -0.3641   58.7777 C.2     1  ZINC001708427409    0.1800
      7 N7         -9.9803    0.5772   58.0010 N.2     1  ZINC001708427409   -0.2800
      8 N8        -10.6220    0.5798   56.8875 N.2     1  ZINC001708427409   -0.3200
      9 C9        -11.5301   -0.3674   56.8939 C.2     1  ZINC001708427409    0.3600
     10 N10       -12.4132   -0.6690   55.8694 N.3     1  ZINC001708427409   -0.4200
     11 C11       -11.8140   -1.6464   54.9187 C.3     1  ZINC001708427409    0.0400
     12 C12       -12.6067   -1.4566   53.6069 C.3     1  ZINC001708427409   -0.0900
     13 H13       -13.3951   -2.2052   53.5291 H       1  ZINC001708427409    0.0900
     14 C14       -11.6688   -1.5463   52.4014 C.3     1  ZINC001708427409   -0.1500
     15 C15       -13.2211   -0.0349   53.7102 C.3     1  ZINC001708427409   -0.0800
     16 H16       -12.9203    0.5855   52.8661 H       1  ZINC001708427409    0.0900
     17 C17       -14.7402   -0.2033   53.7526 C.3     1  ZINC001708427409   -0.1100
     18 C18       -15.3949    1.1141   54.1672 C.3     1  ZINC001708427409   -0.1200
     19 C19       -14.9834    1.4279   55.6039 C.3     1  ZINC001708427409   -0.1100
     20 C20       -13.4787    1.5705   55.7108 C.3     1  ZINC001708427409   -0.1000
     21 C21       -12.6653    0.5158   55.0209 C.3     1  ZINC001708427409    0.1000
     22 H22       -11.6909    0.9535   54.8035 H       1  ZINC001708427409    0.0600
     23 N23       -11.4366   -1.0031   58.0977 N.pl3   1  ZINC001708427409   -0.4700
     24 C24       -12.2460   -2.1301   58.5679 C.3     1  ZINC001708427409    0.0800
     25 C25       -13.5757   -1.6090   59.1168 C.3     1  ZINC001708427409    0.1200
     26 C26       -14.7320   -2.2615   58.3562 C.3     1  ZINC001708427409   -0.1800
     27 C27       -13.6841   -1.9539   60.6033 C.3     1  ZINC001708427409   -0.1500
     28 O28       -13.6365   -0.1909   58.9511 O.3     1  ZINC001708427409   -0.5400
     29 H29        -9.0102   -0.3999   62.7076 H       1  ZINC001708427409    0.0600
     30 H30        -9.7473    1.1838   63.0496 H       1  ZINC001708427409    0.0600
     31 H31       -10.7816   -0.2266   62.7192 H       1  ZINC001708427409    0.0500
     32 H32       -10.6490    1.2626   60.7411 H       1  ZINC001708427409    0.0700
     33 H33        -8.8776    1.0894   60.7295 H       1  ZINC001708427409    0.0800
     34 H34        -8.2337   -1.6177   61.0816 H       1  ZINC001708427409    0.0700
     35 H35        -8.6799   -2.2995   59.4991 H       1  ZINC001708427409    0.0500
     36 H36        -7.8738   -0.7152   59.5902 H       1  ZINC001708427409    0.0700
     37 H37       -10.7588   -1.4237   54.7601 H       1  ZINC001708427409    0.0600
     38 H38       -11.9363   -2.6631   55.2923 H       1  ZINC001708427409    0.0800
     39 H39       -11.2070   -2.5332   52.3730 H       1  ZINC001708427409    0.0600
     40 H40       -12.2376   -1.3849   51.4857 H       1  ZINC001708427409    0.0600
     41 H41       -10.8937   -0.7848   52.4866 H       1  ZINC001708427409    0.0600
     42 H42       -15.1006   -0.4921   52.7651 H       1  ZINC001708427409    0.0600
     43 H43       -14.9991   -0.9792   54.4730 H       1  ZINC001708427409    0.0700
     44 H44       -15.0589    1.9137   53.5070 H       1  ZINC001708427409    0.0600
     45 H45       -16.4791    1.0185   54.1093 H       1  ZINC001708427409    0.0600
     46 H46       -15.4555    2.3589   55.9174 H       1  ZINC001708427409    0.0600
     47 H47       -15.3146    0.6204   56.2568 H       1  ZINC001708427409    0.0600
     48 H48       -13.1965    2.5349   55.2883 H       1  ZINC001708427409    0.0600
     49 H49       -13.2105    1.5746   56.7672 H       1  ZINC001708427409    0.0700
     50 H50       -12.4370   -2.8112   57.7387 H       1  ZINC001708427409    0.0900
     51 H51       -11.7097   -2.6586   59.3561 H       1  ZINC001708427409    0.1000
     52 H52       -14.6856   -3.3431   58.4826 H       1  ZINC001708427409    0.0700
     53 H53       -15.6794   -1.8902   58.7471 H       1  ZINC001708427409    0.0700
     54 H54       -14.6547   -2.0157   57.2971 H       1  ZINC001708427409    0.0600
     55 H55       -12.8167   -1.5590   61.1322 H       1  ZINC001708427409    0.0700
     56 H56       -14.5921   -1.5119   61.0137 H       1  ZINC001708427409    0.0700
     57 H57       -13.7209   -3.0367   60.7234 H       1  ZINC001708427409    0.0700
     58 H58       -13.5568    0.1015   58.0328 H       1  ZINC001708427409    0.3800
@<TRIPOS>BOND
     1     1     2    1
     2     1    29    1
     3     1    30    1
     4     1    31    1
     5     2     3    1
     6     2    32    1
     7     2    33    1
     8     3     4    1
     9     3     5    1
    10     3     6    1
    11     5    34    1
    12     5    35    1
    13     5    36    1
    14     6    23    1
    15     6     7    2
    16     7     8    1
    17     8     9    2
    18     9    10    1
    19     9    23    1
    20    10    21    1
    21    10    11    1
    22    11    12    1
    23    11    37    1
    24    11    38    1
    25    12    13    1
    26    12    14    1
    27    12    15    1
    28    14    39    1
    29    14    40    1
    30    14    41    1
    31    15    16    1
    32    15    21    1
    33    15    17    1
    34    17    18    1
    35    17    42    1
    36    17    43    1
    37    18    19    1
    38    18    44    1
    39    18    45    1
    40    19    20    1
    41    19    46    1
    42    19    47    1
    43    20    21    1
    44    20    48    1
    45    20    49    1
    46    21    22    1
    47    23    24    1
    48    24    25    1
    49    24    50    1
    50    24    51    1
    51    25    26    1
    52    25    27    1
    53    25    28    1
    54    26    52    1
    55    26    53    1
    56    26    54    1
    57    27    55    1
    58    27    56    1
    59    27    57    1
    60    28    58    1
@<TRIPOS>SUBSTRUCTURE
     1 ZINC001708427409        1 TEMP              0 ****  ****    0 ROOT


##########                                Name:    ZINC000331626032
##########                DOCK_Rotatable_Bonds:                   5
##########                         Heavy_Atoms:                  25
##########                    Molecular_Weight:              339.44
##########                DOCK_Rotatable_Bonds:                   5
##########                       Formal_Charge:        -2.16067e-07
##########                     HBond_Acceptors:                   6
##########                        HBond_Donors:                   2
##########                         Heavy_Atoms:                  25
##########                          Grid_Score:          -22.393270
##########                     Grid_vdw_energy:          -21.029003
##########                      Grid_es_energy:           -1.364268
##########           Internal_energy_repulsive:           29.182665

@<TRIPOS>MOLECULE
ZINC000331626032
 50 52 1 0 0
SMALL
USER_CHARGES


@<TRIPOS>ATOM
      1 C1        -14.4824   -2.4809   61.7501 C.3     1  ZINC000331626032   -0.2000
      2 C2        -13.8212   -2.1532   60.4097 C.3     1  ZINC000331626032    0.0700
      3 H3        -13.8088   -3.0449   59.7831 H       1  ZINC000331626032    0.1100
      4 C4        -14.6004   -1.0642   59.7182 C.2     1  ZINC000331626032    0.5200
      5 O5        -14.8882   -0.0501   60.3180 O.2     1  ZINC000331626032   -0.5000
      6 N6        -14.9773   -1.2173   58.4334 N.am    1  ZINC000331626032   -0.5800
      7 C7        -15.7346   -0.1588   57.7611 C.3     1  ZINC000331626032    0.0800
      8 C8        -14.6452   -2.3874   57.7415 C.ar    1  ZINC000331626032    0.1400
      9 C9        -15.3110   -3.5737   58.0209 C.ar    1  ZINC000331626032   -0.1000
     10 C10       -14.9809   -4.7269   57.3363 C.ar    1  ZINC000331626032   -0.1100
     11 C11       -13.9883   -4.7012   56.3740 C.ar    1  ZINC000331626032   -0.1200
     12 C12       -13.3231   -3.5217   56.0938 C.ar    1  ZINC000331626032   -0.1100
     13 C13       -13.6532   -2.3637   56.7701 C.ar    1  ZINC000331626032   -0.1200
     14 N14       -12.4438   -1.6982   60.6415 N.3     1  ZINC000331626032   -0.5100
     15 C15       -11.6971   -1.6170   59.3797 C.3     1  ZINC000331626032    0.0500
     16 C16       -10.2328   -1.2825   59.6726 C.3     1  ZINC000331626032   -0.1100
     17 C17       -10.1586    0.0530   60.4179 C.3     1  ZINC000331626032   -0.1100
     18 C18       -10.9840   -0.0429   61.7040 C.3     1  ZINC000331626032   -0.0400
     19 H19       -10.5593   -0.8090   62.3527 H       1  ZINC000331626032    0.1000
     20 C20       -10.9640    1.2859   62.4149 C.ar    1  ZINC000331626032    0.2300
     21 C21        -9.7605    1.8665   62.7822 C.ar    1  ZINC000331626032   -0.2900
     22 C22        -9.7866    3.0895   63.4345 C.ar    1  ZINC000331626032    0.1900
     23 N23       -10.9521    3.6622   63.6853 N.ar    1  ZINC000331626032   -0.5700
     24 C24       -12.0852    3.0801   63.3205 C.ar    1  ZINC000331626032    0.5700
     25 N25       -13.2871    3.7077   63.5984 N.pl3   1  ZINC000331626032   -0.8200
     26 N26       -12.0947    1.9145   62.6909 N.ar    1  ZINC000331626032   -0.5700
     27 C27       -12.4265   -0.4133   61.3523 C.3     1  ZINC000331626032    0.0700
     28 H28       -14.4949   -1.5891   62.3767 H       1  ZINC000331626032    0.0700
     29 H29       -15.5045   -2.8184   61.5781 H       1  ZINC000331626032    0.0800
     30 H30       -13.9189   -3.2686   62.2502 H       1  ZINC000331626032    0.0700
     31 H31       -15.0432    0.5363   57.2848 H       1  ZINC000331626032    0.0600
     32 H32       -16.3840   -0.6006   57.0051 H       1  ZINC000331626032    0.0800
     33 H33       -16.3403    0.3756   58.4930 H       1  ZINC000331626032    0.0800
     34 H34       -16.0860   -3.5945   58.7729 H       1  ZINC000331626032    0.1200
     35 H35       -15.4983   -5.6497   57.5532 H       1  ZINC000331626032    0.1300
     36 H36       -13.7318   -5.6045   55.8402 H       1  ZINC000331626032    0.1300
     37 H37       -12.5478   -3.5051   55.3420 H       1  ZINC000331626032    0.1300
     38 H38       -13.1333   -1.4428   56.5509 H       1  ZINC000331626032    0.1200
     39 H39       -11.7543   -2.5744   58.8616 H       1  ZINC000331626032    0.0900
     40 H40       -12.1290   -0.8379   58.7515 H       1  ZINC000331626032    0.0300
     41 H41        -9.7963   -2.0682   60.2892 H       1  ZINC000331626032    0.0800
     42 H42        -9.6821   -1.2070   58.7348 H       1  ZINC000331626032    0.0700
     43 H43        -9.1207    0.2741   60.6667 H       1  ZINC000331626032    0.0700
     44 H44       -10.5595    0.8455   59.7860 H       1  ZINC000331626032    0.0700
     45 H45        -8.8227    1.3768   62.5654 H       1  ZINC000331626032    0.1400
     46 H46        -8.8664    3.5686   63.7346 H       1  ZINC000331626032    0.1700
     47 H47       -13.2932    4.5635   64.0550 H       1  ZINC000331626032    0.4100
     48 H48       -14.1233    3.2918   63.3364 H       1  ZINC000331626032    0.4100
     49 H49       -12.8550    0.3602   60.7148 H       1  ZINC000331626032    0.0400
     50 H50       -13.0136   -0.4964   62.2670 H       1  ZINC000331626032    0.0800
@<TRIPOS>BOND
     1     1     2    1
     2     1    28    1
     3     1    29    1
     4     1    30    1
     5     2     3    1
     6     2     4    1
     7     2    14    1
     8     4     5    2
     9     4     6   am
    10     6     7    1
    11     6     8    1
    12     7    31    1
    13     7    32    1
    14     7    33    1
    15     8    13   ar
    16     8     9   ar
    17     9    10   ar
    18     9    34    1
    19    10    11   ar
    20    10    35    1
    21    11    12   ar
    22    11    36    1
    23    12    13   ar
    24    12    37    1
    25    13    38    1
    26    14    27    1
    27    14    15    1
    28    15    16    1
    29    15    39    1
    30    15    40    1
    31    16    17    1
    32    16    41    1
    33    16    42    1
    34    17    18    1
    35    17    43    1
    36    17    44    1
    37    18    19    1
    38    18    20    1
    39    18    27    1
    40    20    26   ar
    41    20    21   ar
    42    21    22   ar
    43    21    45    1
    44    22    23   ar
    45    22    46    1
    46    23    24   ar
    47    24    25    1
    48    24    26   ar
    49    25    47    1
    50    25    48    1
    51    27    49    1
    52    27    50    1
@<TRIPOS>SUBSTRUCTURE
     1 ZINC000331626032        1 TEMP              0 ****  ****    0 ROOT


##########                                Name:    ZINC000004040798
##########                DOCK_Rotatable_Bonds:                   3
##########                         Heavy_Atoms:                  22
##########                    Molecular_Weight:             361.151
##########                DOCK_Rotatable_Bonds:                   3
##########                       Formal_Charge:           0.0200003
##########                     HBond_Acceptors:                   6
##########                        HBond_Donors:                   1
##########                         Heavy_Atoms:                  22
##########                          Grid_Score:          -22.354010
##########                     Grid_vdw_energy:          -20.660183
##########                      Grid_es_energy:           -1.693826
##########           Internal_energy_repulsive:            2.922174

@<TRIPOS>MOLECULE
ZINC000004040798
 31 33 1 0 0
SMALL
USER_CHARGES


@<TRIPOS>ATOM
      1 O1        -11.3397    0.8172   62.3711 O.2     1  ZINC000004040798   -0.4800
      2 C2        -10.2007    0.4376   62.5685 C.2     1  ZINC000004040798    0.6100
      3 N3         -9.5816   -0.3389   61.6573 N.am    1  ZINC000004040798   -0.6600
      4 C4        -10.2505   -0.7131   60.4875 C.ar    1  ZINC000004040798    0.2300
      5 C5        -10.9216   -1.9272   60.4276 C.ar    1  ZINC000004040798   -0.1300
      6 C6        -11.5813   -2.2940   59.2706 C.ar    1  ZINC000004040798   -0.0100
      7 C7        -11.5740   -1.4540   58.1725 C.ar    1  ZINC000004040798   -0.0600
      8 N8        -12.2821   -1.8507   56.9347 N.pl3   1  ZINC000004040798    0.0300
      9 O9        -12.8701   -2.9162   56.8843 O.2     1  ZINC000004040798   -0.1500
     10 O10       -12.2767   -1.1118   55.9665 O.2     1  ZINC000004040798   -0.1500
     11 C11       -10.9072   -0.2436   58.2281 C.ar    1  ZINC000004040798    0.0000
     12 C12       -10.2498    0.1320   59.3839 C.ar    1  ZINC000004040798   -0.1400
     13 Br13       -9.3383    1.7870   59.4594 Br      1  ZINC000004040798    0.0000
     14 C14        -9.4979    0.8308   63.7975 C.2     1  ZINC000004040798   -0.0500
     15 C15        -8.1492    0.8391   63.9582 C.2     1  ZINC000004040798   -0.0800
     16 C16        -7.9070    1.2953   65.3264 C.ar    1  ZINC000004040798   -0.1500
     17 C17        -6.7587    1.5153   66.0904 C.ar    1  ZINC000004040798   -0.0500
     18 C18        -6.8765    1.9566   67.3784 C.ar    1  ZINC000004040798   -0.1400
     19 C19        -8.1286    2.1867   67.9313 C.ar    1  ZINC000004040798   -0.0700
     20 C20        -9.2739    1.9756   67.1941 C.ar    1  ZINC000004040798   -0.1100
     21 C21        -9.1793    1.5275   65.8819 C.ar    1  ZINC000004040798    0.0800
     22 O22       -10.0950    1.2437   64.9352 O.3     1  ZINC000004040798   -0.1900
     23 H23        -8.6721   -0.6381   61.8128 H       1  ZINC000004040798    0.4300
     24 H24       -10.9275   -2.5843   61.2847 H       1  ZINC000004040798    0.1800
     25 H25       -12.1030   -3.2385   59.2236 H       1  ZINC000004040798    0.1700
     26 H26       -10.9035    0.4104   57.3687 H       1  ZINC000004040798    0.1700
     27 H27        -7.4061    0.5640   63.2242 H       1  ZINC000004040798    0.1800
     28 H28        -5.7820    1.3372   65.6652 H       1  ZINC000004040798    0.1400
     29 H29        -5.9893    2.1270   67.9702 H       1  ZINC000004040798    0.1400
     30 H30        -8.2063    2.5346   68.9507 H       1  ZINC000004040798    0.1400
     31 H31       -10.2427    2.1585   67.6349 H       1  ZINC000004040798    0.1400
@<TRIPOS>BOND
     1     1     2    2
     2     2     3   am
     3     2    14    1
     4     3     4    1
     5     3    23    1
     6     4    12   ar
     7     4     5   ar
     8     5     6   ar
     9     5    24    1
    10     6     7   ar
    11     6    25    1
    12     7     8    1
    13     7    11   ar
    14     8     9    2
    15     8    10    2
    16    11    12   ar
    17    11    26    1
    18    12    13    1
    19    14    22    1
    20    14    15    2
    21    15    16    1
    22    15    27    1
    23    16    21   ar
    24    16    17   ar
    25    17    18   ar
    26    17    28    1
    27    18    19   ar
    28    18    29    1
    29    19    20   ar
    30    19    30    1
    31    20    21   ar
    32    20    31    1
    33    21    22    1
@<TRIPOS>SUBSTRUCTURE
     1 ZINC000004040798        1 TEMP              0 ****  ****    0 ROOT


##########                                Name:    ZINC000431691749
##########                DOCK_Rotatable_Bonds:                   4
##########                         Heavy_Atoms:                  24
##########                    Molecular_Weight:             328.454
##########                DOCK_Rotatable_Bonds:                   4
##########                       Formal_Charge:         -0.00999957
##########                     HBond_Acceptors:                   4
##########                        HBond_Donors:                   0
##########                         Heavy_Atoms:                  24
##########                          Grid_Score:          -22.335495
##########                     Grid_vdw_energy:          -22.161259
##########                      Grid_es_energy:           -0.174236
##########           Internal_energy_repulsive:          101.832420

@<TRIPOS>MOLECULE
ZINC000431691749
 52 54 1 0 0
SMALL
USER_CHARGES


@<TRIPOS>ATOM
      1 C1         -9.9962    0.6765   53.1356 C.3     1  ZINC000431691749   -0.1200
      2 C2        -10.6382   -0.6463   53.4661 C.ar    1  ZINC000431691749   -0.0800
      3 C3        -10.7666   -1.6154   52.4891 C.ar    1  ZINC000431691749   -0.1200
      4 C4        -11.3556   -2.8289   52.7922 C.ar    1  ZINC000431691749   -0.1100
      5 C5        -11.8156   -3.0732   54.0725 C.ar    1  ZINC000431691749   -0.1100
      6 C6        -11.6864   -2.1041   55.0501 C.ar    1  ZINC000431691749   -0.0800
      7 C7        -12.1883   -2.3702   56.4459 C.3     1  ZINC000431691749    0.2000
      8 H8        -11.6206   -3.1901   56.8859 H       1  ZINC000431691749    0.1100
      9 N9        -12.0201   -1.1661   57.2631 N.am    1  ZINC000431691749   -0.5700
     10 C10       -12.4936    0.0499   56.9260 C.2     1  ZINC000431691749    0.5200
     11 O11       -13.1154    0.3424   55.9272 O.2     1  ZINC000431691749   -0.4400
     12 C12       -12.0878    0.9754   58.0558 C.3     1  ZINC000431691749    0.0900
     13 H13       -11.4313    1.7641   57.6884 H       1  ZINC000431691749    0.1300
     14 C14       -13.3233    1.5759   58.7297 C.3     1  ZINC000431691749   -0.1500
     15 N15       -11.3650    0.0905   58.9856 N.am    1  ZINC000431691749   -0.6000
     16 C16       -10.7519    0.4731   60.2599 C.3     1  ZINC000431691749    0.1500
     17 C17        -9.2425    0.1866   60.3280 C.3     1  ZINC000431691749   -0.1600
     18 C18        -9.0292    1.5923   59.7422 C.3     1  ZINC000431691749   -0.1400
     19 C19       -10.3927    1.9658   60.3471 C.3     1  ZINC000431691749   -0.1500
     20 C20       -11.3826   -1.1386   58.4390 C.2     1  ZINC000431691749    0.7000
     21 O21       -10.8700   -2.1137   58.9525 O.2     1  ZINC000431691749   -0.5300
     22 C22       -13.6701   -2.7472   56.3919 C.3     1  ZINC000431691749   -0.0700
     23 C23       -14.3859   -2.1794   57.6191 C.3     1  ZINC000431691749   -0.1400
     24 C24       -14.2976   -2.1683   55.1223 C.3     1  ZINC000431691749   -0.1400
     25 C25       -13.8086   -4.2709   56.3802 C.3     1  ZINC000431691749   -0.1600
     26 C26       -11.0937   -0.8926   54.7480 C.ar    1  ZINC000431691749   -0.1100
     27 H27        -8.9220    0.6123   53.3090 H       1  ZINC000431691749    0.0700
     28 H28       -10.1816    0.9189   52.0892 H       1  ZINC000431691749    0.0700
     29 H29       -10.4208    1.4548   53.7697 H       1  ZINC000431691749    0.0700
     30 H30       -10.4071   -1.4246   51.4886 H       1  ZINC000431691749    0.1200
     31 H31       -11.4565   -3.5859   52.0285 H       1  ZINC000431691749    0.1200
     32 H32       -12.2763   -4.0209   54.3092 H       1  ZINC000431691749    0.1100
     33 H33       -13.9548    0.7739   59.1117 H       1  ZINC000431691749    0.0700
     34 H34       -13.0117    2.2171   59.5544 H       1  ZINC000431691749    0.0800
     35 H35       -13.8832    2.1648   58.0033 H       1  ZINC000431691749    0.0800
     36 H36       -11.3067    0.1063   61.1236 H       1  ZINC000431691749    0.1000
     37 H37        -8.8647    0.0751   61.3443 H       1  ZINC000431691749    0.0900
     38 H38        -8.9203   -0.6163   59.6650 H       1  ZINC000431691749    0.0700
     39 H39        -8.1918    2.1288   60.1884 H       1  ZINC000431691749    0.0700
     40 H40        -9.0142    1.6136   58.6525 H       1  ZINC000431691749    0.0800
     41 H41       -10.9990    2.5993   59.6996 H       1  ZINC000431691749    0.1000
     42 H42       -10.3293    2.3407   61.3687 H       1  ZINC000431691749    0.0900
     43 H43       -14.2872   -1.0939   57.6274 H       1  ZINC000431691749    0.0600
     44 H44       -15.4416   -2.4479   57.5805 H       1  ZINC000431691749    0.0600
     45 H45       -13.9389   -2.5918   58.5237 H       1  ZINC000431691749    0.0600
     46 H46       -13.7876   -2.5728   54.2479 H       1  ZINC000431691749    0.0500
     47 H47       -15.3533   -2.4368   55.0837 H       1  ZINC000431691749    0.0600
     48 H48       -14.1989   -1.0829   55.1306 H       1  ZINC000431691749    0.0500
     49 H49       -12.9284   -4.7193   56.8408 H       1  ZINC000431691749    0.0700
     50 H50       -14.6983   -4.5591   56.9401 H       1  ZINC000431691749    0.0400
     51 H51       -13.8979   -4.6197   55.3514 H       1  ZINC000431691749    0.1000
     52 H52       -10.9926   -0.1356   55.5117 H       1  ZINC000431691749    0.1300
@<TRIPOS>BOND
     1     1     2    1
     2     1    27    1
     3     1    28    1
     4     1    29    1
     5     2    26   ar
     6     2     3   ar
     7     3     4   ar
     8     3    30    1
     9     4     5   ar
    10     4    31    1
    11     5     6   ar
    12     5    32    1
    13     6     7    1
    14     6    26   ar
    15     7     8    1
    16     7     9    1
    17     7    22    1
    18     9    20   am
    19     9    10   am
    20    10    11    2
    21    10    12    1
    22    12    13    1
    23    12    14    1
    24    12    15    1
    25    14    33    1
    26    14    34    1
    27    14    35    1
    28    15    16    1
    29    15    20   am
    30    16    19    1
    31    16    17    1
    32    16    36    1
    33    17    18    1
    34    17    37    1
    35    17    38    1
    36    18    19    1
    37    18    39    1
    38    18    40    1
    39    19    41    1
    40    19    42    1
    41    20    21    2
    42    22    23    1
    43    22    24    1
    44    22    25    1
    45    23    43    1
    46    23    44    1
    47    23    45    1
    48    24    46    1
    49    24    47    1
    50    24    48    1
    51    25    49    1
    52    25    50    1
    53    25    51    1
    54    26    52    1
@<TRIPOS>SUBSTRUCTURE
     1 ZINC000431691749        1 TEMP              0 ****  ****    0 ROOT


##########                                Name:    ZINC000950547210
##########                DOCK_Rotatable_Bonds:                   5
##########                         Heavy_Atoms:                  25
##########                    Molecular_Weight:              346.47
##########                DOCK_Rotatable_Bonds:                   5
##########                       Formal_Charge:         5.58794e-07
##########                     HBond_Acceptors:                   5
##########                        HBond_Donors:                   1
##########                         Heavy_Atoms:                  25
##########                          Grid_Score:          -22.141844
##########                     Grid_vdw_energy:          -22.086447
##########                      Grid_es_energy:           -0.055396
##########           Internal_energy_repulsive:           23.046944

@<TRIPOS>MOLECULE
ZINC000950547210
 55 58 1 0 0
SMALL
USER_CHARGES


@<TRIPOS>ATOM
      1 O1         -1.2639    4.1161   53.3232 O.2     1  ZINC000950547210   -0.5200
      2 C2         -1.4768    3.8647   52.1560 C.2     1  ZINC000950547210    0.5200
      3 N3         -2.7403    3.8590   51.6874 N.am    1  ZINC000950547210   -0.7300
      4 C4         -3.8574    4.1505   52.5892 C.3     1  ZINC000950547210    0.1300
      5 H5         -3.7384    5.1516   53.0039 H       1  ZINC000950547210    0.0900
      6 C6         -5.1743    4.0723   51.8132 C.3     1  ZINC000950547210   -0.1300
      7 C7         -6.3392    4.4089   52.7468 C.3     1  ZINC000950547210   -0.1300
      8 C8         -6.3877    3.3857   53.8859 C.3     1  ZINC000950547210    0.1000
      9 N9         -5.0757    3.3509   54.5464 N.am    1  ZINC000950547210   -0.6100
     10 C10        -4.9732    3.5230   55.8792 C.2     1  ZINC000950547210    0.5600
     11 O11        -5.9725    3.7093   56.5469 O.2     1  ZINC000950547210   -0.5200
     12 C12        -3.6527    3.4856   56.5263 C.2     1  ZINC000950547210   -0.1400
     13 C13        -3.0466    2.3211   56.6721 C.2     1  ZINC000950547210   -0.1500
     14 C14        -1.7015    2.1857   57.3282 C.3     1  ZINC000950547210    0.0900
     15 O15        -1.0654    3.4624   57.4120 O.3     1  ZINC000950547210   -0.3700
     16 C16        -1.9055    4.4726   57.9833 C.3     1  ZINC000950547210    0.0600
     17 C17        -3.0360    4.7755   56.9937 C.3     1  ZINC000950547210   -0.1100
     18 C18        -3.8773    3.1250   53.7269 C.3     1  ZINC000950547210    0.1000
     19 C19        -0.3277    3.5647   51.2283 C.3     1  ZINC000950547210   -0.1000
     20 H20        -0.6909    2.9972   50.3715 H       1  ZINC000950547210    0.1000
     21 C21         0.7281    2.7448   51.9726 C.3     1  ZINC000950547210   -0.1100
     22 C22         2.0528    3.5102   51.9851 C.3     1  ZINC000950547210   -0.0900
     23 C23         2.5156    3.7523   50.5471 C.3     1  ZINC000950547210   -0.1100
     24 C24         1.4599    4.5722   49.8028 C.3     1  ZINC000950547210   -0.1100
     25 C25         0.2933    4.8768   50.7447 C.3     1  ZINC000950547210   -0.0600
     26 C26         0.8032    5.6735   51.9472 C.3     1  ZINC000950547210   -0.1300
     27 C27         1.8590    4.8534   52.6916 C.3     1  ZINC000950547210   -0.1200
     28 H28        -2.9102    3.6617   50.7529 H       1  ZINC000950547210    0.4000
     29 H29        -5.1525    4.7844   50.9883 H       1  ZINC000950547210    0.0800
     30 H30        -5.3041    3.0644   51.4193 H       1  ZINC000950547210    0.0700
     31 H31        -6.1971    5.4073   53.1605 H       1  ZINC000950547210    0.0700
     32 H32        -7.2745    4.3759   52.1880 H       1  ZINC000950547210    0.0900
     33 H33        -7.1519    3.6769   54.6064 H       1  ZINC000950547210    0.0900
     34 H34        -6.6198    2.4001   53.4821 H       1  ZINC000950547210    0.0700
     35 H35        -3.5372    1.4314   56.3059 H       1  ZINC000950547210    0.1200
     36 H36        -1.8279    1.7783   58.3312 H       1  ZINC000950547210    0.0700
     37 H37        -1.0796    1.5097   56.7413 H       1  ZINC000950547210    0.1100
     38 H38        -2.3233    4.1128   58.9235 H       1  ZINC000950547210    0.0600
     39 H39        -1.3228    5.3767   58.1601 H       1  ZINC000950547210    0.1000
     40 H40        -2.6349    5.3231   56.1409 H       1  ZINC000950547210    0.0900
     41 H41        -3.7979    5.3793   57.4867 H       1  ZINC000950547210    0.0900
     42 H42        -3.9043    2.1182   53.3099 H       1  ZINC000950547210    0.0700
     43 H43        -2.9858    3.2437   54.3427 H       1  ZINC000950547210    0.1000
     44 H44         0.3984    2.5723   52.9971 H       1  ZINC000950547210    0.0700
     45 H45         0.8662    1.7878   51.4694 H       1  ZINC000950547210    0.0700
     46 H46         2.8049    2.9260   52.5155 H       1  ZINC000950547210    0.0700
     47 H47         3.4594    4.2976   50.5561 H       1  ZINC000950547210    0.0600
     48 H48         2.6537    2.7953   50.0439 H       1  ZINC000950547210    0.0600
     49 H49         1.9023    5.5070   49.4583 H       1  ZINC000950547210    0.0700
     50 H50         1.0967    4.0047   48.9461 H       1  ZINC000950547210    0.0600
     51 H51        -0.4587    5.4609   50.2144 H       1  ZINC000950547210    0.0800
     52 H52         1.2457    6.6082   51.6027 H       1  ZINC000950547210    0.0600
     53 H53        -0.0278    5.8904   52.6183 H       1  ZINC000950547210    0.0900
     54 H54         1.5293    4.6810   53.7161 H       1  ZINC000950547210    0.0600
     55 H55         2.8028    5.3987   52.7005 H       1  ZINC000950547210    0.0600
@<TRIPOS>BOND
     1     1     2    2
     2     2     3   am
     3     2    19    1
     4     3     4    1
     5     3    28    1
     6     4     5    1
     7     4    18    1
     8     4     6    1
     9     6     7    1
    10     6    29    1
    11     6    30    1
    12     7     8    1
    13     7    31    1
    14     7    32    1
    15     8     9    1
    16     8    33    1
    17     8    34    1
    18     9    10   am
    19     9    18    1
    20    10    11    2
    21    10    12    1
    22    12    17    1
    23    12    13    2
    24    13    14    1
    25    13    35    1
    26    14    15    1
    27    14    36    1
    28    14    37    1
    29    15    16    1
    30    16    17    1
    31    16    38    1
    32    16    39    1
    33    17    40    1
    34    17    41    1
    35    18    42    1
    36    18    43    1
    37    19    20    1
    38    19    25    1
    39    19    21    1
    40    21    22    1
    41    21    44    1
    42    21    45    1
    43    22    27    1
    44    22    23    1
    45    22    46    1
    46    23    24    1
    47    23    47    1
    48    23    48    1
    49    24    25    1
    50    24    49    1
    51    24    50    1
    52    25    26    1
    53    25    51    1
    54    26    27    1
    55    26    52    1
    56    26    53    1
    57    27    54    1
    58    27    55    1
@<TRIPOS>SUBSTRUCTURE
     1 ZINC000950547210        1 TEMP              0 ****  ****    0 ROOT


##########                                Name:    ZINC000656860804
##########                DOCK_Rotatable_Bonds:                   2
##########                         Heavy_Atoms:                  19
##########                    Molecular_Weight:             388.068
##########                DOCK_Rotatable_Bonds:                   2
##########                       Formal_Charge:          8.9407e-08
##########                     HBond_Acceptors:                   8
##########                        HBond_Donors:                   1
##########                         Heavy_Atoms:                  19
##########                          Grid_Score:          -22.007803
##########                     Grid_vdw_energy:          -21.339725
##########                      Grid_es_energy:           -0.668078
##########           Internal_energy_repulsive:           46.354080

@<TRIPOS>MOLECULE
ZINC000656860804
 28 29 1 0 0
SMALL
USER_CHARGES


@<TRIPOS>ATOM
      1 O1         -4.3163    6.4586   54.3496 O.2     1  ZINC000656860804   -0.5400
      2 C2         -4.0355    5.3658   53.9048 C.2     1  ZINC000656860804    0.5100
      3 C3         -5.1408    4.5144   53.3421 C.3     1  ZINC000656860804    0.1100
      4 N4         -4.5468    3.3947   52.5965 N.am    1  ZINC000656860804   -1.0000
      5 S5         -5.1509    2.9194   51.1297 S.o2    1  ZINC000656860804    2.6900
      6 O6         -5.1816    4.0816   50.3127 O.2     1  ZINC000656860804   -0.9200
      7 O7         -4.4507    1.7359   50.7718 O.2     1  ZINC000656860804   -0.9300
      8 C8         -6.8289    2.4466   51.3852 C.ar    1  ZINC000656860804   -0.6500
      9 C9         -7.1424    1.1262   51.6459 C.ar    1  ZINC000656860804    0.0100
     10 C10        -8.4598    0.7543   51.8466 C.ar    1  ZINC000656860804   -0.0400
     11 Cl11       -8.8535   -0.9044   52.1746 Cl      1  ZINC000656860804   -0.0200
     12 C12        -9.4640    1.7054   51.7862 C.ar    1  ZINC000656860804    0.0200
     13 Cl13      -11.1174    1.2398   52.0385 Cl      1  ZINC000656860804   -0.0100
     14 C14        -9.1495    3.0270   51.5253 C.ar    1  ZINC000656860804   -0.0900
     15 C15        -7.8316    3.3984   51.3305 C.ar    1  ZINC000656860804    0.0100
     16 Br16       -7.4015    5.2049   50.9737 Br      1  ZINC000656860804    0.0100
     17 C17        -3.3926    2.7136   53.2069 C.3     1  ZINC000656860804    0.0900
     18 C18        -2.2623    3.7333   53.3597 C.3     1  ZINC000656860804    0.0800
     19 N19        -2.7600    4.9764   53.9318 N.am    1  ZINC000656860804   -0.7100
     20 H20        -5.7534    4.1268   54.1562 H       1  ZINC000656860804    0.1200
     21 H21        -5.7577    5.1129   52.6719 H       1  ZINC000656860804    0.1200
     22 H22        -6.3589    0.3843   51.6926 H       1  ZINC000656860804    0.1700
     23 H23        -9.9325    3.7693   51.4777 H       1  ZINC000656860804    0.1700
     24 H24        -3.6711    2.3239   54.1860 H       1  ZINC000656860804    0.1000
     25 H25        -3.0660    1.8960   52.5644 H       1  ZINC000656860804    0.1200
     26 H26        -1.4915    3.3197   54.0099 H       1  ZINC000656860804    0.1000
     27 H27        -1.8313    3.9404   52.3802 H       1  ZINC000656860804    0.0800
     28 H28        -2.1201    5.5597   54.3690 H       1  ZINC000656860804    0.4000
@<TRIPOS>BOND
     1     1     2    2
     2     2    19   am
     3     2     3    1
     4     3     4    1
     5     3    20    1
     6     3    21    1
     7     4     5   am
     8     4    17    1
     9     5     6    2
    10     5     7    2
    11     5     8    1
    12     8    15   ar
    13     8     9   ar
    14     9    10   ar
    15     9    22    1
    16    10    11    1
    17    10    12   ar
    18    12    13    1
    19    12    14   ar
    20    14    15   ar
    21    14    23    1
    22    15    16    1
    23    17    18    1
    24    17    24    1
    25    17    25    1
    26    18    19    1
    27    18    26    1
    28    18    27    1
    29    19    28    1
@<TRIPOS>SUBSTRUCTURE
     1 ZINC000656860804        1 TEMP              0 ****  ****    0 ROOT


##########                                Name:    ZINC000845755710
##########                DOCK_Rotatable_Bonds:                   3
##########                         Heavy_Atoms:                  24
##########                    Molecular_Weight:             349.814
##########                DOCK_Rotatable_Bonds:                   3
##########                       Formal_Charge:         -0.00999974
##########                     HBond_Acceptors:                   6
##########                        HBond_Donors:                   0
##########                         Heavy_Atoms:                  24
##########                          Grid_Score:          -21.743029
##########                     Grid_vdw_energy:          -21.328262
##########                      Grid_es_energy:           -0.414766
##########           Internal_energy_repulsive:           14.134733

@<TRIPOS>MOLECULE
ZINC000845755710
 44 47 1 0 0
SMALL
USER_CHARGES


@<TRIPOS>ATOM
      1 C1        -13.8913   -0.1757   52.3069 C.3     1  ZINC000845755710   -0.1700
      2 C2        -12.6761   -0.5098   53.1744 C.3     1  ZINC000845755710    0.2600
      3 C3        -13.0538   -0.3987   54.6528 C.3     1  ZINC000845755710   -0.0900
      4 C4        -13.9636   -1.5681   55.0359 C.3     1  ZINC000845755710   -0.1300
      5 C5        -14.3676   -1.4347   56.5075 C.3     1  ZINC000845755710    0.1100
      6 N6        -13.1511   -1.3242   57.3238 N.am    1  ZINC000845755710   -0.6000
      7 C7        -12.9440   -2.1560   58.3639 C.2     1  ZINC000845755710    0.5900
      8 O8        -13.7687   -3.0085   58.6344 O.2     1  ZINC000845755710   -0.5200
      9 C9        -11.7212   -2.0330   59.1718 C.2     1  ZINC000845755710   -0.2200
     10 C10       -10.6187   -2.8286   59.1196 C.2     1  ZINC000845755710    0.0600
     11 O11        -9.7098   -2.4046   60.0053 O.3     1  ZINC000845755710   -0.1800
     12 C12       -10.1506   -1.3238   60.6823 C.ar    1  ZINC000845755710    0.0500
     13 C13        -9.5915   -0.5363   61.6808 C.ar    1  ZINC000845755710   -0.0900
     14 C14       -10.2983    0.5306   62.1939 C.ar    1  ZINC000845755710   -0.0800
     15 C15       -11.5688    0.8292   61.7230 C.ar    1  ZINC000845755710   -0.0400
     16 Cl16      -12.4421    2.1767   62.3830 Cl      1  ZINC000845755710   -0.0600
     17 C17       -12.1398    0.0583   60.7312 C.ar    1  ZINC000845755710   -0.0500
     18 C18       -11.4327   -1.0166   60.2034 C.ar    1  ZINC000845755710   -0.0900
     19 C19       -12.1642   -0.2901   56.9844 C.3     1  ZINC000845755710    0.1000
     20 C20       -11.7848   -0.4362   55.5074 C.3     1  ZINC000845755710   -0.1300
     21 O21       -12.2337   -1.8479   52.8911 O.3     1  ZINC000845755710   -0.3700
     22 C22       -11.1760   -1.6894   51.9152 C.3     1  ZINC000845755710    0.0100
     23 C23       -10.4994   -0.3808   52.3942 C.3     1  ZINC000845755710    0.0200
     24 O24       -11.6090    0.4014   52.8800 O.3     1  ZINC000845755710   -0.3800
     25 H25       -13.6180   -0.2503   51.2544 H       1  ZINC000845755710    0.0600
     26 H26       -14.6965   -0.8776   52.5238 H       1  ZINC000845755710    0.0800
     27 H27       -14.2252    0.8389   52.5246 H       1  ZINC000845755710    0.0800
     28 H28       -13.5790    0.5410   54.8238 H       1  ZINC000845755710    0.0900
     29 H29       -14.8564   -1.5543   54.4107 H       1  ZINC000845755710    0.0800
     30 H30       -13.4304   -2.5073   54.8887 H       1  ZINC000845755710    0.0800
     31 H31       -14.9784   -0.5416   56.6392 H       1  ZINC000845755710    0.0700
     32 H32       -14.9335   -2.3151   56.8123 H       1  ZINC000845755710    0.1000
     33 H33       -10.4957   -3.6761   58.4615 H       1  ZINC000845755710    0.2200
     34 H34        -8.6036   -0.7599   62.0555 H       1  ZINC000845755710    0.1500
     35 H35        -9.8589    1.1395   62.9701 H       1  ZINC000845755710    0.1500
     36 H36       -13.1288    0.2904   60.3645 H       1  ZINC000845755710    0.1400
     37 H37       -12.5952    0.6965   57.1550 H       1  ZINC000845755710    0.0800
     38 H38       -11.2760   -0.4150   57.6039 H       1  ZINC000845755710    0.0900
     39 H39       -11.2720   -1.3861   55.3559 H       1  ZINC000845755710    0.0700
     40 H40       -11.1268    0.3831   55.2180 H       1  ZINC000845755710    0.0800
     41 H41       -10.4791   -2.5266   51.9557 H       1  ZINC000845755710    0.1100
     42 H42       -11.5852   -1.5724   50.9117 H       1  ZINC000845755710    0.0800
     43 H43        -9.7911   -0.5850   53.1973 H       1  ZINC000845755710    0.0800
     44 H44       -10.0064    0.1243   51.5637 H       1  ZINC000845755710    0.1000
@<TRIPOS>BOND
     1     1     2    1
     2     1    25    1
     3     1    26    1
     4     1    27    1
     5     2    24    1
     6     2     3    1
     7     2    21    1
     8     3    20    1
     9     3     4    1
    10     3    28    1
    11     4     5    1
    12     4    29    1
    13     4    30    1
    14     5     6    1
    15     5    31    1
    16     5    32    1
    17     6     7   am
    18     6    19    1
    19     7     8    2
    20     7     9    1
    21     9    18    1
    22     9    10    2
    23    10    11    1
    24    10    33    1
    25    11    12    1
    26    12    18   ar
    27    12    13   ar
    28    13    14   ar
    29    13    34    1
    30    14    15   ar
    31    14    35    1
    32    15    16    1
    33    15    17   ar
    34    17    18   ar
    35    17    36    1
    36    19    20    1
    37    19    37    1
    38    19    38    1
    39    20    39    1
    40    20    40    1
    41    21    22    1
    42    22    23    1
    43    22    41    1
    44    22    42    1
    45    23    24    1
    46    23    43    1
    47    23    44    1
@<TRIPOS>SUBSTRUCTURE
     1 ZINC000845755710        1 TEMP              0 ****  ****    0 ROOT


##########                                Name:    ZINC000482962466
##########                DOCK_Rotatable_Bonds:                   2
##########                         Heavy_Atoms:                  25
##########                    Molecular_Weight:             404.303
##########                DOCK_Rotatable_Bonds:                   2
##########                       Formal_Charge:           0.0200002
##########                     HBond_Acceptors:                   4
##########                        HBond_Donors:                   0
##########                         Heavy_Atoms:                  25
##########                          Grid_Score:          -21.607462
##########                     Grid_vdw_energy:          -21.036661
##########                      Grid_es_energy:           -0.570801
##########           Internal_energy_repulsive:            6.373287

@<TRIPOS>MOLECULE
ZINC000482962466
 47 50 1 0 0
SMALL
USER_CHARGES


@<TRIPOS>ATOM
      1 C1        -12.7823   -1.4213   53.0622 C.3     1  ZINC000482962466   -0.1400
      2 C2        -12.2634   -1.0232   54.4454 C.3     1  ZINC000482962466    0.0700
      3 H3        -11.1971   -1.2395   54.5103 H       1  ZINC000482962466    0.0700
      4 C4        -13.0133   -1.8165   55.5216 C.3     1  ZINC000482962466    0.0800
      5 N5        -12.6331   -1.2857   56.8403 N.am    1  ZINC000482962466   -0.6100
      6 C6        -12.2218   -2.1070   57.8266 C.2     1  ZINC000482962466    0.5600
      7 O7        -12.1607   -3.3056   57.6336 O.2     1  ZINC000482962466   -0.5200
      8 C8        -11.8452   -1.5504   59.1425 C.ar    1  ZINC000482962466   -0.1100
      9 C9        -12.8455   -1.0943   60.0193 C.ar    1  ZINC000482962466   -0.0700
     10 C10       -12.5248   -0.5790   61.2335 C.ar    1  ZINC000482962466   -0.1000
     11 C11       -11.1773   -0.4959   61.6292 C.ar    1  ZINC000482962466   -0.0400
     12 C12       -10.8212    0.0333   62.8806 C.ar    1  ZINC000482962466   -0.0700
     13 C13        -9.5079    0.1007   63.2363 C.ar    1  ZINC000482962466   -0.0800
     14 Br14       -9.0352    0.8137   64.9227 Br      1  ZINC000482962466   -0.0400
     15 C15        -8.5067   -0.3487   62.3755 C.ar    1  ZINC000482962466   -0.1000
     16 C16        -8.8136   -0.8670   61.1555 C.ar    1  ZINC000482962466   -0.0900
     17 C17       -10.1591   -0.9530   60.7539 C.ar    1  ZINC000482962466   -0.0500
     18 C18       -10.5098   -1.4872   59.5055 C.ar    1  ZINC000482962466   -0.0700
     19 C19       -12.7158    0.1686   57.0502 C.3     1  ZINC000482962466    0.0700
     20 C20       -11.9832    0.8651   55.8991 C.3     1  ZINC000482962466    0.0800
     21 C21       -12.2164    2.3755   55.9854 C.3     1  ZINC000482962466   -0.1100
     22 C22       -11.4152    3.0686   54.8787 C.3     1  ZINC000482962466   -0.1500
     23 C23        -9.9368    2.6971   55.0212 C.3     1  ZINC000482962466    0.0600
     24 O24        -9.7951    1.2765   54.9615 O.3     1  ZINC000482962466   -0.3700
     25 C25       -10.4838    0.5776   56.0006 C.3     1  ZINC000482962466    0.0400
     26 O26       -12.4806    0.3747   54.6528 O.3     1  ZINC000482962466   -0.3500
     27 H27       -12.2499   -0.8555   52.2978 H       1  ZINC000482962466    0.0700
     28 H28       -12.6181   -2.4874   52.9056 H       1  ZINC000482962466    0.0800
     29 H29       -13.8486   -1.2047   52.9980 H       1  ZINC000482962466    0.0700
     30 H30       -14.0881   -1.7055   55.3773 H       1  ZINC000482962466    0.0800
     31 H31       -12.7409   -2.8700   55.4576 H       1  ZINC000482962466    0.1000
     32 H32       -13.8823   -1.1543   59.7227 H       1  ZINC000482962466    0.1400
     33 H33       -13.3043   -0.2324   61.8958 H       1  ZINC000482962466    0.1400
     34 H34       -11.5852    0.3857   63.5577 H       1  ZINC000482962466    0.1400
     35 H35        -7.4730   -0.2841   62.6817 H       1  ZINC000482962466    0.1400
     36 H36        -8.0281   -1.2106   60.4989 H       1  ZINC000482962466    0.1400
     37 H37        -9.7447   -1.8424   58.8309 H       1  ZINC000482962466    0.1400
     38 H38       -13.7606    0.4792   57.0619 H       1  ZINC000482962466    0.0900
     39 H39       -12.2440    0.4303   57.9974 H       1  ZINC000482962466    0.1000
     40 H40       -13.2774    2.5887   55.8555 H       1  ZINC000482962466    0.0800
     41 H41       -11.8861    2.7404   56.9579 H       1  ZINC000482962466    0.0800
     42 H42       -11.7807    2.7418   53.9052 H       1  ZINC000482962466    0.0800
     43 H43       -11.5295    4.1488   54.9681 H       1  ZINC000482962466    0.0800
     44 H44        -9.3678    3.1534   54.2112 H       1  ZINC000482962466    0.1000
     45 H45        -9.5616    3.0599   55.9781 H       1  ZINC000482962466    0.0500
     46 H46       -10.1145    0.9115   56.9701 H       1  ZINC000482962466    0.0600
     47 H47       -10.3111   -0.4934   55.8947 H       1  ZINC000482962466    0.1000
@<TRIPOS>BOND
     1     1     2    1
     2     1    27    1
     3     1    28    1
     4     1    29    1
     5     2     3    1
     6     2    26    1
     7     2     4    1
     8     4     5    1
     9     4    30    1
    10     4    31    1
    11     5     6   am
    12     5    19    1
    13     6     7    2
    14     6     8    1
    15     8    18   ar
    16     8     9   ar
    17     9    10   ar
    18     9    32    1
    19    10    11   ar
    20    10    33    1
    21    11    17   ar
    22    11    12   ar
    23    12    13   ar
    24    12    34    1
    25    13    14    1
    26    13    15   ar
    27    15    16   ar
    28    15    35    1
    29    16    17   ar
    30    16    36    1
    31    17    18   ar
    32    18    37    1
    33    19    20    1
    34    19    38    1
    35    19    39    1
    36    20    25    1
    37    20    21    1
    38    20    26    1
    39    21    22    1
    40    21    40    1
    41    21    41    1
    42    22    23    1
    43    22    42    1
    44    22    43    1
    45    23    24    1
    46    23    44    1
    47    23    45    1
    48    24    25    1
    49    25    46    1
    50    25    47    1
@<TRIPOS>SUBSTRUCTURE
     1 ZINC000482962466        1 TEMP              0 ****  ****    0 ROOT


##########                                Name:    ZINC000820901229
##########                DOCK_Rotatable_Bonds:                   3
##########                         Heavy_Atoms:                  18
##########                    Molecular_Weight:             331.233
##########                DOCK_Rotatable_Bonds:                   3
##########                       Formal_Charge:           0.0099999
##########                     HBond_Acceptors:                   5
##########                        HBond_Donors:                   1
##########                         Heavy_Atoms:                  18
##########                          Grid_Score:          -20.311106
##########                     Grid_vdw_energy:          -21.514977
##########                      Grid_es_energy:            1.203870
##########           Internal_energy_repulsive:            4.856381

@<TRIPOS>MOLECULE
ZINC000820901229
 33 35 1 0 0
SMALL
USER_CHARGES


@<TRIPOS>ATOM
      1 O1         -7.5350    1.4548   53.9268 O.2     1  ZINC000820901229   -0.5300
      2 C2         -7.6296    1.3661   52.7174 C.2     1  ZINC000820901229    0.6000
      3 N3         -8.6898    0.7407   52.1685 N.am    1  ZINC000820901229   -0.7100
      4 C4         -9.7252    0.1624   53.0286 C.3     1  ZINC000820901229    0.1600
      5 H5         -9.3215   -0.0174   54.0250 H       1  ZINC000820901229    0.1000
      6 C6        -10.2310   -1.1570   52.4233 C.3     1  ZINC000820901229   -0.1300
      7 C7        -11.3570   -1.7594   53.2581 C.3     1  ZINC000820901229   -0.1100
      8 C8        -12.5043   -0.7557   53.4604 C.3     1  ZINC000820901229   -0.1100
      9 C9        -11.9165    0.4753   54.1188 C.3     1  ZINC000820901229    0.0800
     10 H10       -11.3914    0.1889   55.0301 H       1  ZINC000820901229    0.0700
     11 O11       -12.7959    1.5600   54.3931 O.3     1  ZINC000820901229   -0.3700
     12 C12       -11.9332    2.7084   54.5951 C.3     1  ZINC000820901229    0.0500
     13 C13       -10.6348    2.4504   53.7876 C.3     1  ZINC000820901229   -0.1500
     14 C14       -10.9120    1.1058   53.1144 C.3     1  ZINC000820901229   -0.1400
     15 H15       -11.3693    1.2492   52.1354 H       1  ZINC000820901229    0.0900
     16 C16        -6.5889    1.9474   51.8528 C.2     1  ZINC000820901229    0.0100
     17 C17        -6.6833    1.9832   50.5049 C.2     1  ZINC000820901229   -0.2200
     18 S18        -5.2829    2.7324   49.8728 S.3     1  ZINC000820901229    0.3100
     19 C19        -4.6514    2.9549   51.4438 C.2     1  ZINC000820901229   -0.0100
     20 Br20       -2.9912    3.7731   51.8314 Br      1  ZINC000820901229    0.0700
     21 N21        -5.4658    2.4937   52.3279 N.2     1  ZINC000820901229   -0.4100
     22 H22        -8.7673    0.6736   51.2039 H       1  ZINC000820901229    0.4100
     23 H23       -10.5973   -0.9686   51.4142 H       1  ZINC000820901229    0.0700
     24 H24        -9.4049   -1.8663   52.3745 H       1  ZINC000820901229    0.0700
     25 H25       -11.7425   -2.6441   52.7514 H       1  ZINC000820901229    0.0800
     26 H26       -10.9626   -2.0509   54.2315 H       1  ZINC000820901229    0.0700
     27 H27       -12.9378   -0.4892   52.4964 H       1  ZINC000820901229    0.0700
     28 H28       -13.2685   -1.1911   54.1041 H       1  ZINC000820901229    0.0800
     29 H29       -12.4243    3.6104   54.2302 H       1  ZINC000820901229    0.0900
     30 H30       -11.6971    2.8136   55.6540 H       1  ZINC000820901229    0.0600
     31 H31       -10.4851    3.2292   53.0396 H       1  ZINC000820901229    0.0800
     32 H32        -9.7740    2.3836   54.4530 H       1  ZINC000820901229    0.0800
     33 H33        -7.5084    1.6005   49.9225 H       1  ZINC000820901229    0.2000
@<TRIPOS>BOND
     1     1     2    2
     2     2     3   am
     3     2    16    1
     4     3     4    1
     5     3    22    1
     6     4     5    1
     7     4    14    1
     8     4     6    1
     9     6     7    1
    10     6    23    1
    11     6    24    1
    12     7     8    1
    13     7    25    1
    14     7    26    1
    15     8     9    1
    16     8    27    1
    17     8    28    1
    18     9    10    1
    19     9    14    1
    20     9    11    1
    21    11    12    1
    22    12    13    1
    23    12    29    1
    24    12    30    1
    25    13    14    1
    26    13    31    1
    27    13    32    1
    28    14    15    1
    29    16    21    1
    30    16    17    2
    31    17    18    1
    32    17    33    1
    33    18    19    1
    34    19    20    1
    35    19    21    2
@<TRIPOS>SUBSTRUCTURE
     1 ZINC000820901229        1 TEMP              0 ****  ****    0 ROOT


##########                                Name:    ZINC000569288350
##########                DOCK_Rotatable_Bonds:                   3
##########                         Heavy_Atoms:                  19
##########                    Molecular_Weight:             393.559
##########                DOCK_Rotatable_Bonds:                   3
##########                       Formal_Charge:           0.0299999
##########                     HBond_Acceptors:                   5
##########                        HBond_Donors:                   1
##########                         Heavy_Atoms:                  19
##########                          Grid_Score:          -19.543581
##########                     Grid_vdw_energy:          -18.031324
##########                      Grid_es_energy:           -1.512257
##########           Internal_energy_repulsive:            4.125903

@<TRIPOS>MOLECULE
ZINC000569288350
 26 27 1 0 0
SMALL
USER_CHARGES


@<TRIPOS>ATOM
      1 O1        -13.4989   -2.4554   61.3959 O.2     1  ZINC000569288350   -0.4800
      2 C2        -12.9100   -1.6310   60.7235 C.2     1  ZINC000569288350    0.5700
      3 N3        -13.3722   -1.3045   59.5003 N.am    1  ZINC000569288350   -0.6600
      4 C4        -14.5264   -1.9183   59.0019 C.ar    1  ZINC000569288350    0.1800
      5 C5        -15.7647   -1.6269   59.5583 C.ar    1  ZINC000569288350   -0.1200
      6 C6        -16.9036   -2.2339   59.0650 C.ar    1  ZINC000569288350   -0.0600
      7 C7        -16.8127   -3.1319   58.0180 C.ar    1  ZINC000569288350   -0.1500
      8 C8        -15.5798   -3.4261   57.4593 C.ar    1  ZINC000569288350    0.1300
      9 F9        -15.4942   -4.3038   56.4358 F       1  ZINC000569288350   -0.1200
     10 C10       -14.4363   -2.8164   57.9454 C.ar    1  ZINC000569288350   -0.1000
     11 Cl11      -12.8907   -3.1838   57.2458 Cl      1  ZINC000569288350   -0.0400
     12 C12       -11.6921   -0.9834   61.2494 C.ar    1  ZINC000569288350   -0.1400
     13 C13       -10.4297   -1.4846   60.9159 C.ar    1  ZINC000569288350    0.1400
     14 F14       -10.3200   -2.5636   60.1104 F       1  ZINC000569288350   -0.1200
     15 C15        -9.2939   -0.8717   61.4132 C.ar    1  ZINC000569288350   -0.1300
     16 C16        -9.4054    0.2324   62.2374 C.ar    1  ZINC000569288350   -0.0600
     17 C17       -10.6521    0.7328   62.5714 C.ar    1  ZINC000569288350   -0.0900
     18 C18       -11.7942    0.1370   62.0783 C.ar    1  ZINC000569288350   -0.0500
     19 I19       -13.6788    0.8981   62.5867 I       1  ZINC000569288350    0.0000
     20 H20       -12.9046   -0.6440   58.9655 H       1  ZINC000569288350    0.4200
     21 H21       -15.8377   -0.9260   60.3769 H       1  ZINC000569288350    0.1600
     22 H22       -17.8664   -2.0067   59.4983 H       1  ZINC000569288350    0.1500
     23 H23       -17.7047   -3.6053   57.6351 H       1  ZINC000569288350    0.1500
     24 H24        -8.3179   -1.2567   61.1571 H       1  ZINC000569288350    0.1500
     25 H25        -8.5153    0.7069   62.6231 H       1  ZINC000569288350    0.1500
     26 H26       -10.7306    1.5957   63.2162 H       1  ZINC000569288350    0.1500
@<TRIPOS>BOND
     1     1     2    2
     2     2     3   am
     3     2    12    1
     4     3     4    1
     5     3    20    1
     6     4    10   ar
     7     4     5   ar
     8     5     6   ar
     9     5    21    1
    10     6     7   ar
    11     6    22    1
    12     7     8   ar
    13     7    23    1
    14     8     9    1
    15     8    10   ar
    16    10    11    1
    17    12    18   ar
    18    12    13   ar
    19    13    14    1
    20    13    15   ar
    21    15    16   ar
    22    15    24    1
    23    16    17   ar
    24    16    25    1
    25    17    18   ar
    26    17    26    1
    27    18    19    1
@<TRIPOS>SUBSTRUCTURE
     1 ZINC000569288350        1 TEMP              0 ****  ****    0 ROOT


##########                                Name:    ZINC001173835973
##########                DOCK_Rotatable_Bonds:                   4
##########                         Heavy_Atoms:                  26
##########                    Molecular_Weight:             343.388
##########                DOCK_Rotatable_Bonds:                   4
##########                       Formal_Charge:           -0.010001
##########                     HBond_Acceptors:                   6
##########                        HBond_Donors:                   4
##########                         Heavy_Atoms:                  26
##########                          Grid_Score:          -18.390863
##########                     Grid_vdw_energy:          -15.246438
##########                      Grid_es_energy:           -3.144425
##########           Internal_energy_repulsive:            7.060151

@<TRIPOS>MOLECULE
ZINC001173835973
 43 46 1 0 0
SMALL
USER_CHARGES


@<TRIPOS>ATOM
      1 C1        -14.7167    2.1461   67.1114 C.3     1  ZINC001173835973   -0.1700
      2 C2        -14.8933    1.7965   65.6561 C.2     1  ZINC001173835973    0.5100
      3 O3        -15.9685    1.4064   65.2523 O.2     1  ZINC001173835973   -0.5200
      4 N4        -13.8567    1.9173   64.8034 N.am    1  ZINC001173835973   -0.6800
      5 C5        -14.0207    1.5927   63.4522 C.ar    1  ZINC001173835973    0.1800
      6 C6        -14.6948    2.4630   62.6050 C.ar    1  ZINC001173835973   -0.1900
      7 C7        -14.8574    2.1435   61.2702 C.ar    1  ZINC001173835973   -0.0600
      8 C8        -14.3501    0.9588   60.7738 C.ar    1  ZINC001173835973   -0.1900
      9 C9        -13.6743    0.0833   61.6162 C.ar    1  ZINC001173835973    0.2200
     10 N10       -13.1617   -1.1143   61.1139 N.pl3   1  ZINC001173835973   -0.6900
     11 C11       -13.4304   -1.4912   59.7929 C.ar    1  ZINC001173835973    0.0400
     12 C12       -12.4547   -1.3822   58.8463 C.ar    1  ZINC001173835973    0.2400
     13 N13       -11.1925   -0.8942   59.2031 N.pl3   1  ZINC001173835973   -0.8600
     14 C14       -12.7165   -1.7706   57.4647 C.ar    1  ZINC001173835973   -0.1100
     15 C15       -11.7156   -1.6610   56.4856 C.ar    1  ZINC001173835973   -0.0600
     16 C16       -12.0169   -2.0404   55.2056 C.ar    1  ZINC001173835973   -0.1700
     17 C17       -13.2875   -2.5183   54.9074 C.ar    1  ZINC001173835973    0.1200
     18 N18       -14.2182   -2.6177   55.8291 N.ar    1  ZINC001173835973   -0.4400
     19 C19       -13.9858   -2.2647   57.0913 C.ar    1  ZINC001173835973    0.1900
     20 C20       -15.0359   -2.3821   58.1100 C.ar    1  ZINC001173835973    0.1300
     21 N21       -16.2436   -2.8439   57.7938 N.ar    1  ZINC001173835973   -0.4400
     22 C22       -17.1926   -2.9543   58.6953 C.ar    1  ZINC001173835973    0.1000
     23 C23       -16.9816   -2.5946   60.0209 C.ar    1  ZINC001173835973   -0.1500
     24 C24       -15.7607   -2.1127   60.4092 C.ar    1  ZINC001173835973   -0.0700
     25 C25       -14.7503   -2.0033   59.4403 C.ar    1  ZINC001173835973   -0.0400
     26 C26       -13.5050    0.4040   62.9561 C.ar    1  ZINC001173835973   -0.1900
     27 H27       -15.6564    1.9863   67.6400 H       1  ZINC001173835973    0.1000
     28 H28       -13.9432    1.5128   67.5458 H       1  ZINC001173835973    0.0900
     29 H29       -14.4228    3.1918   67.2006 H       1  ZINC001173835973    0.0900
     30 H30       -12.9969    2.2293   65.1262 H       1  ZINC001173835973    0.4100
     31 H31       -15.0928    3.3903   62.9899 H       1  ZINC001173835973    0.1200
     32 H32       -15.3827    2.8217   60.6140 H       1  ZINC001173835973    0.1200
     33 H33       -14.4788    0.7120   59.7303 H       1  ZINC001173835973    0.1200
     34 H34       -12.6193   -1.6852   61.6803 H       1  ZINC001173835973    0.4000
     35 H35       -10.9884   -0.7116   60.1336 H       1  ZINC001173835973    0.4100
     36 H36       -10.5217   -0.7389   58.5199 H       1  ZINC001173835973    0.4000
     37 H37       -10.7339   -1.2870   56.7362 H       1  ZINC001173835973    0.1400
     38 H38       -11.2695   -1.9682   54.4292 H       1  ZINC001173835973    0.1400
     39 H39       -13.5150   -2.8146   53.8941 H       1  ZINC001173835973    0.1700
     40 H40       -18.1598   -3.3331   58.3992 H       1  ZINC001173835973    0.1600
     41 H41       -17.7787   -2.6947   60.7427 H       1  ZINC001173835973    0.1400
     42 H42       -15.5781   -1.8278   61.4349 H       1  ZINC001173835973    0.1400
     43 H43       -12.9802   -0.2740   63.6127 H       1  ZINC001173835973    0.1400
@<TRIPOS>BOND
     1     1     2    1
     2     1    27    1
     3     1    28    1
     4     1    29    1
     5     2     3    2
     6     2     4   am
     7     4     5    1
     8     4    30    1
     9     5    26   ar
    10     5     6   ar
    11     6     7   ar
    12     6    31    1
    13     7     8   ar
    14     7    32    1
    15     8     9   ar
    16     8    33    1
    17     9    10    1
    18     9    26   ar
    19    10    11    1
    20    10    34    1
    21    11    25   ar
    22    11    12   ar
    23    12    13    1
    24    12    14   ar
    25    13    35    1
    26    13    36    1
    27    14    19   ar
    28    14    15   ar
    29    15    16   ar
    30    15    37    1
    31    16    17   ar
    32    16    38    1
    33    17    18   ar
    34    17    39    1
    35    18    19   ar
    36    19    20   ar
    37    20    25   ar
    38    20    21   ar
    39    21    22   ar
    40    22    23   ar
    41    22    40    1
    42    23    24   ar
    43    23    41    1
    44    24    25   ar
    45    24    42    1
    46    26    43    1
@<TRIPOS>SUBSTRUCTURE
     1 ZINC001173835973        1 TEMP              0 ****  ****    0 ROOT

